$ -------------------------------------------------------------------- $
$ WAVEWATCH III Point output post-processing ( GrADS )                 $
$--------------------------------------------------------------------- $
$ First output time (yyyymmdd hhmmss), increment of output (s), 
$ and number of output times.
$
  19680606 000000  3600. 7
$
$ Points requested --------------------------------------------------- $
$ Define points for which output is to be generated. 
$
$ 1
$ 2
  3
$ 4
$ mandatory end of list
 -1
$
$ -------------------------------------------------------------------- $
$   Flags for plotting F, Sin, Snl, Sds, Sbt, Sice, Stot
$
  T T T T T T T 
$
$ NOTE : In the Cartesian grid version of the code, X and Y are
$        converted to km. Use source_xy.gs instead of source.gs
$
$ -------------------------------------------------------------------- $
$ End of input file                                                    $
$ -------------------------------------------------------------------- $
