WAVEWATCH III TRACK LOCATIONS DATA
19680605 235900 -1.00 -1.04
19680606 000000  0.00 -1.04
19680606 000100  0.02 -0.02
19680606 000200  0.04  0.00
19680606 000300  0.06  0.02
19680606 000400  0.08  0.04
19680606 000500  0.10  0.06
19680606 000600  0.12  0.08
19680606 000700  0.14  0.10
19680606 000800  0.16  0.12
19680606 000900  0.18  0.14
19680606 001000  0.20  0.16
19680606 001100  0.22  0.18
19680606 001200  0.24  0.20
19680606 001300  0.26  0.22
19680606 001400  0.28  0.24
19680606 001500  0.30  0.26
19680606 001600  0.32  0.28
19680606 001700  0.34  0.30
19680606 001800  0.36  0.32
19680606 001900  0.38  0.34
19680606 002000  0.40  0.36
19680606 002100  0.42  0.38
19680606 002200  0.44  0.40
19680606 002300  0.46  0.42
19680606 002400  0.48  0.44
19680606 002500  0.50  0.46
19680606 002600  0.52  0.48
19680606 002700  0.54  0.50
19680606 002800  0.56  0.52
19680606 002900  0.58  0.54
19680606 003000  0.60  0.56
19680606 003100  0.62  0.58
19680606 003200  0.64  0.60
19680606 003300  0.66  0.62
19680606 003400  0.68  0.64
19680606 003500  0.70  0.66
19680606 003600  0.72  0.68
19680606 003700  0.74  0.70
19680606 003800  0.76  0.72
19680606 003900  0.78  0.74
19680606 004000  0.80  0.76
19680606 004100  0.82  0.78
19680606 004200  0.84  0.80
19680606 004300  0.86  0.82
19680606 004400  0.88  0.84
19680606 004500  0.90  0.86
19680606 004600  0.92  0.88
19680606 004700  0.94  0.90
19680606 004800  0.96  0.92
19680606 004900  0.98  0.94
19680606 005000  1.00  0.96
19680606 005100  1.02  0.98
19680606 005200  1.04  1.00
19680606 005300  1.06  1.02
19680606 005400  1.08  1.04
19680606 005500  1.10  1.06
19680606 005600  1.12  1.08
19680606 005700  1.14  1.10
19680606 005800  1.16  1.12
19680606 005900  1.18  1.14
19680606 010000  1.20  1.16
19680606 010100  1.22  1.18
19680606 010200  1.24  1.20
19680606 010300  1.26  1.22
19680606 010400  1.28  1.24
19680606 010500  1.30  1.26
19680606 010600  1.32  1.28
19680606 010700  1.34  1.30
19680606 010800  1.36  1.32
19680606 010900  1.38  1.34
19680606 011000  1.40  1.36
19680606 011100  1.42  1.38
19680606 011200  1.44  1.40
19680606 011300  1.46  1.42
19680606 011400  1.48  1.44
19680606 011500  1.50  1.46
19680606 011600  1.52  1.48
19680606 011700  1.54  1.50
19680606 011800  1.56  1.52
19680606 011900  1.58  1.54
19680606 012000  1.60  1.56
19680606 012100  1.62  1.58
19680606 012200  1.64  1.60
19680606 012300  1.66  1.62
19680606 012400  1.68  1.64
19680606 012500  1.70  1.66
19680606 012600  1.72  1.68
19680606 012700  1.74  1.70
19680606 012800  1.76  1.72
19680606 023000  2.03  2.05
19680606 023000  2.05  2.06
19680606 023000  2.07  2.07
19680606 023000  2.09  2.08
19680606 023000  2.11  2.09
19680606 023000  2.13  2.10
19680606 023000  2.15  2.11
19680606 030000  2.03  2.05
19680606 030000  2.05  2.06
19680606 030000  2.07  2.07
19680606 030000  2.09  2.08
19680606 030000  2.11  2.09
19680606 030000  2.13  2.10
19680606 030000  2.15  2.11
19680606 033000  2.03  2.05
19680606 033000  2.05  2.06
19680606 033000  2.07  2.07
19680606 033000  2.09  2.08
19680606 033000  2.11  2.09
19680606 033000  2.13  2.10
19680606 033000  2.15  2.11
