$ -------------------------------------------------------------------- $
$ WAVEWATCH III Track output post-processing                           $
$--------------------------------------------------------------------- $
$ First output time (yyyymmdd hhmmss), increment of output (s),
$ and number of output times.
$
  19680606 000000  3600.  100000
$
$ Output type -------------------------------------------------------- $
$ netCDF version [3,4]
$ file prefix
$ number of characters in date [4(yearly),6(monthly),8(daily),10(hourly)]
$
 3
 ww3.
 6 
$
$ -------------------------------------------------------------------- $
$ End of input file                                                    $
$ -------------------------------------------------------------------- $
