#include "w3macros.h"
!/ ------------------------------------------------------------------- /
!/
      MODULE W3SNL4MD
!/
!/                  +-----------------------------------+
!/                  | WAVEWATCH III                 BIO |
!/                  |           Bash Toulany            |
!/                  |           Michael Casey           |
!/                  |           William Perrie          |
!/                  |                        FORTRAN 90 |
!/                  | Last update :         12-Apr-2016 |
!/                  +-----------------------------------+
!/
!/    01-Mar-2016 : Origination.                        ( version 5.13 )
!/
!/    Copyright 2009 National Weather Service (NWS),
!/       National Oceanic and Atmospheric Administration.  All rights
!/       reserved.  WAVEWATCH III is a trademark of the NWS. 
!/       No unauthorized use without permission.
!/
!!
!!    -----------------------------------------------------------------#
!!                                                                     !
!!    Generic shallow-water Boltzmann integral (FBI or TSA)            !
!!                                                                     !
!!    -----------------------------------------------------------------#
!!
!!
!! 1. Purpose :
!!
!!    Interface module for TSA type nonlinear interactions.
!!    Based on Resio and Perrie (2008) and Perrie and Resio (2009)
!!
!! 2. Variables and types :
!!
!!     Name      Type  Scope    Description
!!    ------------------------------------------------------------------
!!    ------------------------------------------------------------------
!!
!! 3. Subroutines and functions :
!!
!!     Name      Type  Scope    Description
!!    ------------------------------------------------------------------
!!     INSNL4    Subr. W3SNL4MD Corresponding initialization routine.
!!     ------
!!     W3SNL4    Subr. W3SNL4MD Main interface for TSA subroutines.
!!     ------                   Replaces main program "sboltz" in
!!                              "sbtsa-0-norm-Dec15-08.f" with
!!                              initialization done in subr. INSNL4
!!     gridsetr  Subr. W3SNL4MD Setup geometric integration grid
!!     shloxr    Subr. W3SNL4MD General locus solution
!!     shlocr    Subr. W3SNL4MD Locus solving routine - must converges
!!     cplshr    Subr. W3SNL4MD Computes Boltzmann coupling coefficient
!!     ------
!!op2
!!     Bash; Sections starting & ending with !!op2 are related to subr. optsa2
!!     optsa2    Subr. W3SNL4MD Converts the 2D Energy Density (f,theta)
!!     ------                   to Polar Action Density (k,theta) Norm. (in k)
!!                              then splits it into large and small scale
!!     --- - - - - - - - - - - - - - - - - - - - - - - - - - - - - !!op2
!!     snlr_tsa  Subr. W3SNL4MD Computes dN(k,theta)/dt for TSA
!!     --------                 due to wave-wave inter. (set itsa = 1)
!!     snlr_fbi  Subr. W3SNL4MD Computes dN(k,theta)/dt for FBI
!!     --------                 due to wave-wave inter. (set itsa = 0)
!!
!!     wkfnc     fnc.  W3SNL4MD Compute wave number "k" for given
!!                              freq "f" (Hz) and water depth "d" (m)
!!                              or can use subr. WAVNU2
!!     cgfnc     fnc.  W3SNL4MD Compute group velocity "cg" for given
!!                              freq "f" (Hz), water depth "d" (m)
!!                              and phase speed "cvel" (m/s)
!!    ------------------------------------------------------------------
!!
!! 4. Subroutines and functions used :
!!
!!     See subroutine documentation.
!!
!! 5. Remarks :
!!
!! 6. Switches :
!!
!!      !/S      Enable subroutine tracing.
!!      !/T(n)   Test output, see subroutines.
!!
!! 7. Source code :
!/
!!    --------------------------------------------------------------- &
!!    ----------------------------------------------------------------72
!!    ==================================================================
!!
!!
      PUBLIC
!!
!!
!!    ------------------------------------------------------------------
!!
!!
!!-0  Set these important run parameters here and declare them as PUBLIC
!! AC   itsa, ialt are set in mod_def and read here
!!      integer, parameter  :: itsa  =  1  !* = 1 for "snlr_tsa" or TSA
!!                           ****        !* = 0 for "snlr_fbi" or FBI
!!      integer, parameter  :: ialt  =  2  !* = 2 do    alternate in snlr's
!!                           ****        !* = 1 don't alternate in snlr's
      integer, parameter  :: ismo  =  1  !* = 1 do    smooth in interp2
!!                           ****        !* = 0 don't smooth in interp2
!!                                       !* interp2 is called only if ialt=2
      integer, parameter  :: npts  = 30  !* # of points on the locus
!!                           ****        !* can reduce npts for speed
      integer, parameter  :: ndep  = 37  !* # of depths in look-up tables
!!                           ****        !* can reduce ndep for speed
!!    ------------------------------------------------------------------
!!
!!
!!-1  Declare freq. related arrays & variables dim (nrng) and
!!            angle related arrays & variables dim (nang) as PUBLIC
      integer                            :: nrng, nzz, kzone, nb2fp
      integer                            :: nang, na2p1
      integer                            :: np2p1
      real                               :: dfrq, f0
      real                               :: ainc, twopi
      real,    allocatable, dimension(:) :: frqa, oma
      real,    allocatable, dimension(:) :: angl, sinan, cosan
      real,    allocatable, dimension(:) :: dep_tbl
!!    ------------------------------------------------------------------
!!
!!
!!-2  Declare gridsetr 11 look-up tables arrays dim (npts,nang,nzz,ndep)
!!    plus    pha_tbl array dim=(nrng,ndep) as PUBLIC
      integer, allocatable, dimension(:,:,:,:) :: kref2_tbl, kref4_tbl
      integer, allocatable, dimension(:,:,:,:) :: jref2_tbl, jref4_tbl
      real,    allocatable, dimension(:,:,:,:) :: wtk2_tbl,  wtk4_tbl
      real,    allocatable, dimension(:,:,:,:) :: wta2_tbl,  wta4_tbl
      real,    allocatable, dimension(:,:,:,:) :: tfac2_tbl, tfac4_tbl
      real,    allocatable, dimension(:,:,:,:) :: grad_tbl
      real,    allocatable, dimension(:,:)     :: pha_tbl
!!    ------------------------------------------------------------------
!!
!!
!!-3  Declare gridsetr 11 returned arrays dim (npts,nang,nzz) as PUBLIC
      integer, allocatable, dimension(:,:,:) :: kref2, kref4
      integer, allocatable, dimension(:,:,:) :: jref2, jref4
      real,    allocatable, dimension(:,:,:) :: wtk2,  wtk4
      real,    allocatable, dimension(:,:,:) :: wta2,  wta4
      real,    allocatable, dimension(:,:,:) :: tfac2, tfac4
      real,    allocatable, dimension(:,:,:) :: grad
!!    ------------------------------------------------------------------
!!
!!
!!-4  Declare shloxr/shlocr 5 returned arrays dim (npts) as PUBLIC
      real,    allocatable, dimension(:)     :: wk2x, wk2y
      real,    allocatable, dimension(:)     :: wk4x, wk4y, ds
!!    ------------------------------------------------------------------
!!
!!
!!-5  Declare w3snl4/optsa2 2 shared arrays dim (nrng,nang) & (nrng) as PUBLIC
!!    - ef2(nrng,nang) 'ww3' 2D Energy
!!    - ef1(nrng)      'ww3' 1D Energy from ef2()
      real,    allocatable, dimension(:,:)   :: ef2
      real,    allocatable, dimension(:)     :: ef1
!!    ------------------------------------------------------------------
!!
!!
!!-6  Declare optsa2 2 returned arrays dim (nrng,nang) as PUBLIC
!!    - dens1(nrng,nang)  'ww3' 2D Broad Scale Action
!!    - dens2(nrng,nang)  'ww3' 2D Small Scale Action
      real,    allocatable, dimension(:,:)   :: dens1, dens2
!!    ------------------------------------------------------------------
!!
!!
!!-7  Declare snlr's 4 returned arrays dim (nrng,nang) as PUBLIC
!!    tsa, diag  used for -tsa
!!    fbi, diag2 used for -fbi
      real,    allocatable, dimension(:,:)   :: tsa, diag
      real,    allocatable, dimension(:,:)   :: fbi, diag2
!!    ------------------------------------------------------------------
!!    ==================================================================
!!
!!
      CONTAINS
!!
!!
!!==============================================================================
!!
!!    ------------------------------------------------------------------
!!    -- - - - - - - - - - - - - - - - - - - - - - - - - - - - - - - - -
      SUBROUTINE INSNL4
!!    -- - - - - - - - - - - - - - - - - - - - - - - - - - - - - - - - -
!!    ------------------------------------------------------------------
!/
!/                  +-----------------------------------+
!/                  | WAVEWATCH III                 BIO |
!/                  |           Bash Toulany            |
!/                  |           Michael Casey           |
!/                  |           William Perrie          |
!/                  |                        FORTRAN 90 |
!/                  | Last update :         12-Apr-2016 |
!/                  +-----------------------------------+
!/
!/    01-Mar-2016 : Origination.                        ( version 5.13 )
!/
!!
!!    it returns: 11 look-up tables arrays dim=(npts,nang,nzz,ndep)
!!                kref2_tbl, kref4_tbl, jref2_tbl, jref4_tbl,
!!                wtk2_tbl,  wtk4_tbl,  wta2_tbl,  wta4_tbl,
!!                tfac2_tbl, tfac4_tbl & grad_tbl
!!                plus       pha_tbl  dim=(nrng,ndep)
!!                and        dep_tbl  dim=(ndep)
!!    ------------------------------------------------------------------
!!    ==================================================================
!!
!! 1. Purpose :
!!    It reads look-up tables (generated by gridsetr) if file exists
!!    otherwise it must generate the look-up tables file
!!
!! 2. Method :
!!    See subr gridsetr and subr W3SNL4 (or subr. W3IOGR)
!!
!! 3. Parameters :
!!
!!    Parameter list
!!    ------------------------------------------------------------------
!!    Name     Type   Scope    I/O  Description
!!    ------------------------------------------------------------------
!!    nrng      int.  Public    I   # of freq. or rings
!!    nang      int.  Public    I   # of angles
!!    npts      int.  Public    I   # of points on the locus
!!    ndep      int.  Public    I   # of depths in look-up tables
!!    dfrq      Real  Public    I   frequency multiplier for log freq. spacing
!!    dep_tbl   R.A.  Public    O   depthes in Look-up tables arrays dim=(ndep)
!!    grdfname  chr.  Local     -   Look-up tables filename (C*80)
!!    ------------------------------------------------------------------
!!
!!    *** The 11 look-up tables for grid integration geometry arrays
!!    *** at all selected 'ndep' depths defined in dep_tbl(ndep)' array
!!    *** from gridsetr.            dim=(npts,nang,nzz,ndep)
!!    kref2_tbl I.A.  Public    O   Index of reference wavenumber for k2
!!    kref4_tbl I.A.  Public    O   Idem for k4
!!    jref2_tbl I.A.  Public    O   Index of reference angle      for k2
!!    jref4_tbl I.A.  Public    O   Idem for k4
!!    wtk2_tbl  R.A.  Public    O   k2 Interpolation weigth along wavenumbers
!!    wtk4_tbl  R.A.  Public    O   Idem for k4
!!    wta2_tbl  R.A.  Public    O   k2 Interpolation weigth along angles
!!    wta4_tbl  R.A.  Public    O   Idem for k4
!!    tfac2_tbl R.A.  Public    O   Norm. for interp Action Density at k2
!!    tfac4_tbl R.A.  Public    O   Idem for k4
!!    grad_tbl  R.A.  Public    O   Coupling and gradient term in integral
!!                                  grad = C * H * g**2 * ds / |dW/dn|
!!    ------------------------------------------------------------------
!!
!!    *** The 11 grid integration geometry arrays at one given depth
!!    *** from gridsetr.            dim=(npts,nang,nzz,ndep)
!!    kref2     I.A.  Public    O   Index of reference wavenumber for k2
!!    kref4     I.A.  Public    O   Idem for k4
!!    jref2     I.A.  Public    O   Index of reference angle      for k2
!!    jref4     I.A.  Public    O   Idem for k4
!!    wtk2      R.A.  Public    O   k2 Interpolation weigth along wavenumbers
!!    wtk4      R.A.  Public    O   Idem for k4
!!    wta2      R.A.  Public    O   k2 Interpolation weigth along angles
!!    wta4      R.A.  Public    O   Idem for k4
!!    tfac2     R.A.  Public    O   Norm. for interp Action Density at k2
!!    tfac4     R.A.  Public    O   Idem for k4
!!    grad      R.A.  Public    O   Coupling and gradient term in integral
!!                                  grad = C * H * g**2 * ds / |dW/dn|
!!    ------------------------------------------------------------------
!!
!! 4. Subroutines used :
!!
!!     Name      Type  Module   Description
!!    ------------------------------------------------------------------
!!     gridsetr  Subr. W3SERVMD Calc. the 11 grid geometry arrays for one depth
!!    ------------------------------------------------------------------
!!
!! 5. Called by :
!!
!!     Name      Type  Module   Description
!!    ------------------------------------------------------------------
!!     STRACE    Subr. W3SERVMD Subroutine tracing.
!!     W3SNL4    Subr. W3SNL4MD Interface for TSA  nonlinear interactions
!!     - or -    the option below was not used
!!     W3IOGR    Subr. W3INITMD Initialization (called by W3SHEL or WMINIT)
!!    ------------------------------------------------------------------
!!
!! 6. Error messages :
!!      None.
!!
!! 7. Remarks :
!!
!! 8. Structure :
!!
!!    See source code.
!!
!! 9. Switches :
!!    !/S  Enable subroutine tracing.
!!
!!10. Source code :
!!
!!    --------------------------------------------------------------- &
!!    -- - - - - - - - - - - - - - - - - - - - - - - - - - - - - - - - -
!!    ----------------------------------------------------------------72
!!    ==================================================================
!!
!!
!/S      USE W3SERVMD, ONLY: STRACE
      USE W3ODATMD, ONLY: NDSE, NDST, NDSO
!/MPI      USE WMMDATMD, ONLY: NMPSCR, IMPROC
!!    ------------------------------------------------------------------
!!    ==================================================================
!!
      IMPLICIT NONE
!!
!!    ==================================================================
!!
!!    Local variables & Parameters
!!    ----------------------------
!/S      INTEGER, SAVE           :: IENT = 0
!!
      integer              :: irng               !* dummy integer
      integer              :: nd                 !* dummy integer
!!
      logical              :: unavail = .TRUE.
      logical              :: file_exists
      character            :: grdfname*80
      integer              :: io_unit
!!
!!     
!!    Dimension wv# array and
!!    declare local var. dep2, cvel & cgnrng at nrng & depth 'nd'
      real                 :: wka2(nrng)  !* wv# array at depth nd (local)
      real                 :: pha2(nrng)  !* pha array at depth nd (local)
      real                 :: dep2        !* = dep_tbl(nd) depth at nd
      real                 :: cvel        !* Phase Velocity at (nrng,nd)
      real                 :: cgnrng      !* Group Velocity at (nrng,nd)
      real                 :: dwka        !* dummy storage for dk
!!    ---------------------::-----------------------------------------72
!!    ##################################################################
!!------------------------------------------------------------------------------
!!==============================================================================
!!
!!
!/S      CALL STRACE (IENT, 'W3SNL4')
!!
!!    ==================================================================
!!
!!
!!-1  Make-up the filename from the main parameters
!!    ------------------------------------------------------------------
!b    example filename; grdfname = 'grd_1.1025_35_36_30_37.dat'
!!    grdfname = 'grd_dfrq_nr_na_np_nd.dat'
!!       where    fm = freq. mult. (dfrq) ex. dfrq = 1.1025 (F6.4)
!!                nr = # of rings  (nrng) ex. nrng = 35     (I2.2)
!!                na = # of angles (nang) ex. nang = 36     (I2.2)
!!                np = # of points (npts) ex. npts = 30     (I2.2)
!!                nd = # of depths (ndep) ex. nd   = 37     (I2.2)
      write(grdfname,'(A,F6.4,A,I2.2,A,I2.2,A,I2.2,A,I2.2,A)')        &
      'grd_', dfrq,'_', nrng,'_', nang,'_',  npts,'_', ndep, '.dat'
!!    ==================================================================
!!
!!
!!-2  Check if the propre gridsetr Look-up tables file is available.
!!    if available read it and if not must generate it (by calling gridsetr)
!!    ------------------------------------------------------------------
      INQUIRE ( FILE=grdfname, EXIST=file_exists )
!!    Assign an unused UNIT number to io_unit.
!!    Note; It's important to look for an available unused number
      io_unit   = 60
      do while (unavail)
        io_unit = io_unit + 1
        INQUIRE ( io_unit, opened=unavail )
      enddo
!prt  print *, 'io_unit = ', io_unit
!!    ==================================================================
!!
!!
!!
!!
      IF ( file_exists ) THEN
!!
!!-3    File exists open it and read it
!!
!/MPI        if ( improc .eq. nmpscr ) then
        write ( ndso, 900 ) grdfname
!/MPI        end if
!!
        open (UNIT=io_unit, FILE=grdfname, STATUS='old',              &
              ACCESS='sequential', ACTION='read', FORM='unformatted')
        read (io_unit)  kref2_tbl, kref4_tbl, jref2_tbl, jref4_tbl,   &
                        wtk2_tbl,  wtk4_tbl,  wta2_tbl,  wta4_tbl,    &
                        tfac2_tbl, tfac4_tbl, grad_tbl,               &
                        pha_tbl,   dep_tbl
        close (io_unit)
!!      ----------------------------------------------------------------
!!
      ELSE      !* ELSE IF ( file_exists )
!!
!!
!!-4    File does not exist, create it here
!!
!/MPI        if ( improc .eq. nmpscr ) then
        write ( ndso, 901 ) grdfname
!/MPI        end if
!!      ----------------------------------------------------------------
!!
!!-4a   Define Look-up tables depth array 'dep_tbl(ndep)' for ndep=37
!!      with depths are +ve values
!!      ----------------------------------------------------------------
        dep_tbl(1:ndep) =                                             &
               (/  2.,  4.,  6.,  8., 10., 12., 14., 16., 18., 20.,   &
                  25., 30., 35., 40., 45., 50., 55., 60., 65., 70.,   &
                  80., 90.,100.,110.,120.,130.,140.,150.,160.,170.,   &
                 220.,270.,320.,370.,420.,470.,520.  /)
!prt    print *, ' ndep = ', ndep
!prt    print *, ' dep_tbl(1:ndep) = ', dep_tbl
!!      ----------------------------------------------------------------
!!      ================================================================
!!
!!
        do 29 nd = 1,ndep
!!
!!
!!-4b     For given new depth dep2 = dep_tbl(nd) calculate
!!        a new array wka2(:) & new cgnrng corresp. to this depth
          dep2 = dep_tbl(nd)
          do irng=1,nrng
            wka2(irng) = wkfnc(frqa(irng),dep2)
          end do
          cvel    = oma(nrng)/wka2(nrng)         !* Phase Vel. at (nrng,nd)
          cgnrng  = cgfnc(frqa(nrng),dep2,cvel)  !* Group Vel. at (nrng,nd)
!!        --------------------------------------------------------------
!!        ==============================================================
!!
!!
!!-4c     Call gridsetr for this depth at nd
!!        --------------------------------------------------------------
!!        -- - - - - - - - - - - - - - - - - - - - - - - - - - - - - - -
          call gridsetr ( dep2, wka2, cgnrng )
!!        -- - - - - - - - - - - - - - - - - - - - - - - - - - - - - - -
!!        it returns: 11 gridsetr arrays which are declared PUBLIC
!!                    kref2,kref4, jref2,jref4, wtk2,wtk4, wta2,wta4,
!!                    tfac2,tfac4  and   grad   all dim=(npts,nang,nzz)
!!        -- - - - - - - - - - - - - - - - - - - - - - - - - - - - - - -
!!        --------------------------------------------------------------
!!        ==============================================================
!!
!!-4d     Store in Look-up tables arrays at depth bin # 'nd'
          kref2_tbl(:,:,:,nd) = kref2(:,:,:)
          kref4_tbl(:,:,:,nd) = kref4(:,:,:)
          jref2_tbl(:,:,:,nd) = jref2(:,:,:)
          jref4_tbl(:,:,:,nd) = jref4(:,:,:)
          wtk2_tbl(:,:,:,nd)  = wtk2(:,:,:)
          wtk4_tbl(:,:,:,nd)  = wtk4(:,:,:)
          wta2_tbl(:,:,:,nd)  = wta2(:,:,:)
          wta4_tbl(:,:,:,nd)  = wta4(:,:,:)
          tfac2_tbl(:,:,:,nd) = tfac2(:,:,:)
          tfac4_tbl(:,:,:,nd) = tfac4(:,:,:)
          grad_tbl(:,:,:,nd)  = grad(:,:,:)
!!        --------------------------------------------------------------
!!        ==============================================================
!!
!!
!!-4e     Calculate pha2(:) at nd depth and store it in pha_tbl(:,:)
!!        pha2()=k*dk*dtheta, the base area at a grid intersection
!!        for use in integration of 2-D Density functions.
!!        --------------------------------------------------------------
!!        Below: variable dwka = dk centered at ring 1 (between 0 & 2)
!!        and computed    pha2(1) = k*dk*dtheta at ring 1
!!        with wkfnc(frqa(1)/dfrq,dep2) is like wka2(0)
!!        --assuming frqa(1)/dfrq is like frqa(0)
          dwka    = ( wka2(2) - wkfnc(frqa(1)/dfrq,dep2) ) / 2.
          pha2(1) = wka2(1)*dwka*ainc
!!
          do 23 irng=2,nrng-1
!!          Below: variable dwka = dk centered at irng (between irng-1 & irng+1)
!!          and computed    pha2(irng) = k*dk*dtheta at irng
            dwka       = ( wka2(irng+1) - wka2(irng-1) ) / 2.
            pha2(irng) = wka2(irng)*dwka*ainc
  23      continue
!!
!!        Below: variable dwka = dk centered at nrng (between nrng-1 & nrng+1)
!!        and computed    pha2(nrng) = k*dk*dtheta at nrng
!!        with wkfnc(dfrq*frqa(nrng),dep2) is like wka2(nrng+1)
!!        --assuming dfrq*frqa(nrng) is like frqa(nrng+1)
          dwka       = ( wkfnc(dfrq*frqa(nrng),dep2) - wka2(nrng-1) ) / 2.
          pha2(nrng) = wka2(nrng)*dwka*ainc
!!        --------------------------------------------------------------
!!        ==============================================================
!!
!!
!!-4f     Store pha2(:) at nd in  pha_tbl(:,nd) to be added to Look-up tables
          pha_tbl(1:nrng, nd) = pha2(1:nrng)
!!        --------------------------------------------------------------
!!        ==============================================================
!!
!!
  29    continue      !* End do 29 nd = 1,ndep
!!      ----------------------------------------------------------------
!!      ================================================================
!!
!!
!!-5    Ounce the Look-up tables arrays are full write it out to 'io_unit'
!!
!/MPI        if ( improc .eq. nmpscr ) then
        write( ndso,902 )
        open (UNIT=io_unit, FILE=grdfname, STATUS='new',              &
             ACCESS='sequential', ACTION='write', FORM='unformatted')
        write (io_unit) kref2_tbl, kref4_tbl, jref2_tbl, jref4_tbl,   &
                        wtk2_tbl,  wtk4_tbl,  wta2_tbl,  wta4_tbl,    &
                        tfac2_tbl, tfac4_tbl, grad_tbl,               &
                        pha_tbl,   dep_tbl
        close (io_unit)
        write( ndso,903 ) grdfname
!/MPI        end if
!!      ----------------------------------------------------------------
!!      ================================================================
!!
      ENDIF     !* End  IF ( file_exists )
!!    ------------------------------------------------------------------
!!    ==================================================================
!!
!!
      RETURN
!!
 900  format ( '  grdfname does exist = ',A/                          &
               '  open, read & close file ' )
!!
 901  format ( '  grdfname does not exist = ',A/                      &
               '  Generate look-up table arrays ' )
!!
 902  format ( '  Done generating look-up table arrays ----------- ' )
!!
 903  format ( '  Done writing & closing grdfname ', A )
!!
      END SUBROUTINE INSNL4
!!
!!==============================================================================
!!
!!    ------------------------------------------------------------------
!!    -- - - - - - - - - - - - - - - - - - - - - - - - - - - - - - - - -
      SUBROUTINE W3SNL4 ( A, CG, WN, DEPTH,  S, D )
!!    -- - - - - - - - - - - - - - - - - - - - - - - - - - - - - - - - -
!!    ------------------------------------------------------------------
!/
!/                  +-----------------------------------+
!/                  | WAVEWATCH III                 BIO |
!/                  |           Bash Toulany            |
!/                  |           Michael Casey           |
!/                  |           William Perrie          |
!/                  |                        FORTRAN 90 |
!/                  | Last update :         12-Apr-2016 |
!/                  +-----------------------------------+
!/
!/    01-Mar-2016 : Origination.                        ( version 5.13 )
!/
!!    ------------------------------------------------------------------
!!
!!    it returns: S & D  dim = (NTH,NK) = (nang,nrng)
!!
!!    -- - - - - - - - - - - - - - - - - - - - - - - - - - - - - - - - -
!!    ------------------------------------------------------------------
!!    ==================================================================
!!
!! 1. Purpose :
!!
!!    Interface module for TSA type nonlinear interactions.
!!    Based on Resio and Perrie (2008) and Perrie and Resio (2009)
!!
!! 2. Method :
!!
!! 3. Parameters :
!!
!!    Parameter list
!!    ------------------------------------------------------------------
!!    Name     Type   Scope    I/O  Description
!!    ------------------------------------------------------------------
!!    A         R.A.            I   2D Action Density A(NTH,NK) as function of
!!                                  direction (rad) and wavenumber (theta,k)
!!    CG        R.A.            I   Group velocities             dim=NK
!!    WN        R.A.            I   Wavenumbers                  dim=NK
!!    DEPTH     Real            I   Water depth (m)
!!    S         R.A.            O   Source term.                 dim=(NTH,NK)
!!    D         R.A.            O   Diagonal term of derivative. dim=(NTH,NK)
!!    ------------------------------------------------------------------
!!
!!    nrng      int.  Public    O   # of freq. or rings
!!    nang      int.  Public    O   # of angles
!!    npts      int.  Public    I   # of points on the locus
!!    ndep      int.  Public    I   # of depths in look-up tables
!!    nzz       int.  Public    O   linear irngxkrng = (NK*(NK+1))/2  
!!    kzone     int.  Public    O   zone of influence = INT(alog(4.0)/alog(dfrq))
!!    nb2fp     int.  Public    O   # of bins over fp => dfrq**nb2fp)*fp ~ 2.*fp
!!                                                    = INT(alog(2.0)/alog(dfrq))
!!    na2p1     int.  Public    O   = nang/2 + 1
!!    np2p1     int.  Public    O   = npts/2 + 1
!!    dfrq      Real  Public    O   frequency multiplier for log freq. spacing
!!    f0        Real  Public    O   = frqa(1); first freq. (Hz)
!!    ainc      Real  Public    O   = DTH; WW3 angle increment (radians)
!!    twopi     Real  Public    O   = TPI; WW3i 2*pi = 8.*atan(1.) (radians)
!!    oma       R.A.  Public    O   = SIG(1:NK)  WW3 waveumber array   dim=(nrng)
!!    frqa      R.A.  Public    O   = oma(:)/twopi WW3 frequency array dim=(nrng)
!!    angl      R.A.  Public    O   = TH(1:NTH);   WW3 angles array       dim=(nang)
!!    sinan     R.A.  Public    O   = ESIN(1:NTH); WW3 sin(angl(:)) array dim=(nang)
!!    cosan     R.A.  Public    O   = ECOS(1:NTH); WW3 cos(angl(:)) array dim=(nang)
!!    dep_tbl   R.A.  Public    I   depthes in Look-up tables arrays dim=(ndep)
!!    ------------------------------------------------------------------
!!
!!    *** The 11 look-up tables for grid integration geometry arrays
!!    *** at all selected 'ndep' depths defined in dep_tbl(ndep)' array
!!    *** from gridsetr.            dim=(npts,nang,nzz,ndep)
!!    kref2_tbl I.A.  Public    I   Index of reference wavenumber for k2
!!    kref4_tbl I.A.  Public    I   Idem for k4
!!    jref2_tbl I.A.  Public    I   Index of reference angle      for k2
!!    jref4_tbl I.A.  Public    I   Idem for k4
!!    wtk2_tbl  R.A.  Public    I   k2 Interpolation weigth along wavenumbers
!!    wtk4_tbl  R.A.  Public    I   Idem for k4
!!    wta2_tbl  R.A.  Public    I   k2 Interpolation weigth along angles
!!    wta4_tbl  R.A.  Public    I   Idem for k4
!!    tfac2_tbl R.A.  Public    I   Norm. for interp Action Density at k2
!!    tfac4_tbl R.A.  Public    I   Idem for k4
!!    grad_tbl  R.A.  Public    I   Coupling and gradient term in integral
!!                                  grad = C * H * g**2 * ds / |dW/dn|
!!    ------------------------------------------------------------------
!!    
!!    *** The 11 grid integration geometry arrays at one given depth
!!    *** from gridsetr.            dim=(npts,nang,nzz,ndep)
!!    kref2     I.A.  Public    O   Index of reference wavenumber for k2
!!    kref4     I.A.  Public    O   Idem for k4
!!    jref2     I.A.  Public    O   Index of reference angle      for k2
!!    jref4     I.A.  Public    O   Idem for k4
!!    wtk2      R.A.  Public    O   k2 Interpolation weigth along wavenumbers
!!    wtk4      R.A.  Public    O   Idem for k4
!!    wta2      R.A.  Public    O   k2 Interpolation weigth along angles
!!    wta4      R.A.  Public    O   Idem for k4
!!    tfac2     R.A.  Public    O   Norm. for interp Action Density at k2
!!    tfac4     R.A.  Public    O   Idem for k4
!!    grad      R.A.  Public    O   Coupling and gradient term in integral
!!                                  grad = C * H * g**2 * ds / |dW/dn|
!!    ------------------------------------------------------------------
!!
!!    ef2       R.A.  Public    O   2D Energy Density spectrum ef2(theta,f)
!!                                  = A(theta,k) * 2*pi*oma(f)/cga(f)
!!                                                     dim=(nrng,nang)
!!    ef1       R.A.  Public    O   1D Energy Density spectrum ef1(f)
!!                                                     dim=(nrng)
!!
!!    dens1     R.A.  Public    O   large-scale Action Density (k,theta)
!!                                                     dim=(nrng,nang)
!!    dens2     R.A.  Public    O   Small-scale Action Density (k,theta)
!!                                                     dim=(nrng,nang)
!!    ------------------------------------------------------------------
!!
!!    for -tsa; The 2 returned arrays tsa & diag dim=(nrng,nang)
!!    tsa       R.A.  Public    O   Snl-tsa = sumint + sumintsa
!!    diag      R.A.  Public    O   Snl-tsa diagonal term = [dN/dn1]
!!    ------------------------------------------------------------------
!!    
!!    for -fbi; The 2 returned arrays fbi & diag2 dim=(nrng,nang)
!!    fbi       R.A.  Public    O   Snl-fbi = sumint + sumintp  + sumintx
!!    diag2     R.A.  Public    O   Snl-fbi diagonal term = [dN/dn1]
!!    ------------------------------------------------------------------
!!
!! 4. Subroutines used :
!!
!!     Name      Type  Module   Description
!!    ------------------------------------------------------------------
!!     STRACE    Subr. W3SERVMD Subroutine tracing.
!!     optsa2    Subr. W3SERVMD Converts the 2D Energy Density (f,theta)
!!     ------                   to Polar Action Density (k,theta) Norm. (in k)
!!                              then splits it into large and small scale
!!     snlr_tsa  Subr. W3SERVMD Computes dN(k,theta)/dt for TSA
!!     --------                 due to wave-wave inter. (set itsa = 1)
!!     snlr_fbi  Subr. W3SERVMD Computes dN(k,theta)/dt for FBI
!!     --------                 due to wave-wave inter. (set itsa = 0)
!!    ------------------------------------------------------------------
!!
!! 5. Called by :
!!
!!     Name      Type  Module   Description
!!    ------------------------------------------------------------------
!!     W3SRCE    Subr. w3srcemd Source term integration.
!!     W3EXPO    Subr. ww3_outp Point output post-processor.
!!     W3EXNC    Subr. ww3_ounp NetCDF Point output post-processor.
!!     GXEXPO    Subr. gx_outp  GrADS  Point output post-processor.
!!    ------------------------------------------------------------------
!!
!! 6. Error messages :
!!
!!      None.
!!
!! 7. Remarks :
!!
!! 8. Structure :
!!
!!    See source code.
!!
!! 9. Switches :
!!
!!    !/S   Enable subroutine tracing.
!!
!!10. Source code :
!!
!!    --------------------------------------------------------------- &
!!    -- - - - - - - - - - - - - - - - - - - - - - - - - - - - - - - - -
!!    ----------------------------------------------------------------72
!!    ==================================================================
!!
!!
      USE CONSTANTS, ONLY: TPI
      USE W3GDATMD,  ONLY: NK,  NTH,  XFR, DTH,  SIG, TH, ECOS, ESIN, &
                           ITSA, IALT
!!    dimension: SIG(0:NK+1),TH(NTH), ECOS(NSPEC+NTH), ESIN(NSPEC+NTH)
!!
      USE W3SERVMD, ONLY: EXTCDE
      USE W3ODATMD, ONLY: NDSE, NDST, NDSO
!/S      USE W3SERVMD, ONLY: STRACE
!!    ==================================================================
!!
      IMPLICIT NONE
!!
!!    Parameter list
!!    --------------
      REAL,    INTENT(IN)  :: A(NTH,NK), CG(NK), WN(NK), DEPTH
      REAL,    INTENT(OUT) :: S(NTH,NK), D(NTH,NK)
!!
      LOGICAL, SAVE        :: FIRST_TSA = .TRUE.
!!    -- - - - - - - - - - - - - - - - - - - - - - - - - - - - - - - - -
!!    ------------------------------------------------------------------
!!
!!    Local Parameters & variables
!!    -----------------------------
!/S      INTEGER, SAVE           :: IENT = 0
      integer              :: irng, iang
      integer              :: nd3         !* bin # corresp. to ww3 dep  
      real                 :: dep         !* depth (m), get it from WW3 DEPTH
      real                 :: wka(NK)     !* from WW3 WN(1:NK) corresp. to "DEPTH"
      real                 :: cga(NK)     !* from WW3 CG(1:NK) corresp. to "DEPTH"
      real                 :: pha(NK)     !* k*dk*dtheta array corresp. to "DEPTH"
      real                 :: fac         !* twopi*oma()/cga()
      real                 :: sum1        !* dummy variable
!!    -- - - - - - - - - - - - - - - - - - - - - - - - - - - - - - - - -
!!
      integer              :: npk         !* bin# at peak frequency fpk
      integer              :: npk2        !* bin# of second peak frequency
      integer              :: npk0        !* dummy int. used in the shuffle of npk's
      integer              :: nsep        !* min # of bins that separates npk & npk2
                                          !* set nsep = 2
      integer              :: npeaks      !* # of peaks (=0, 1, or 2)
      integer              :: nfs         !* bin# of freq. separation
!!    -- - - - - - - - - - - - - - - - - - - - - - - - - - - - - - - - -
!!
      integer              :: nbins       !* actual # of bins > npk  (incl. nfs) or
!!                                        !* actual # of bins > npk2 (incl. nrng)
!!                                        !* to guarantee a min 1 bin in equi. range
      real                 :: fpk         !* peak frequency (Hz)
      real                 :: fpk2        !* second peak frequency (Hz)
      real                 :: e1max       !* 1D energy at 1st peak 'fpk'
      real                 :: e1max2      !* 1D energy at 2nd peak 'fpk2'
      real                 :: sumd1       !* sum dens1+dens2 at nfs
      real                 :: sumd2       !* sum dens1+dens2 at nfs+1
      real                 :: densat1     !* averaged dens1  at nfs
      real                 :: densat2     !* averaged dens1  at nfs+1
!!    --------------------------------------------------------------- &
!!    ---------------------::-----------------------------------------72
!!    ##################################################################
!!------------------------------------------------------------------------------
!!==============================================================================
!!
!!
!/S      CALL STRACE (IENT, 'W3SNL4')
!!
!!ini
!!    Initialization of the output arrays
!!    before calling TSA subroutines.
!!    -----------------------------------
      S(:,:) = 0.0
      D(:,:) = 0.0
!!ini---
!!    ------------------------------------------------------------------
!!    ==================================================================
!!------------------------------------------------------------------------------
!!==============================================================================
!!
!!
!!
      IF ( FIRST_TSA ) THEN
!!
!!
!!-0    Set parameters & constants
!!      ---------------------------
        nrng  = NK                     !* nrng = NK  must be odd   <---
        nzz   = (NK * (NK+1)) / 2      !* linear irng, krng
        nang  = NTH                    !* nang = NTH must be even  <---
        na2p1 = nang/2 + 1             !* mid-angle or angle opposite to 1
        np2p1 = npts/2 + 1             !* mid-index of locus array
        twopi = TPI                    !* twopi = 8.*atan(1.)
                                       !* get it from WW3 TPI
!!      ----------------------------------------------------------------
!!      ================================================================
!!
!!
!!-1    Allocate freq & angle related array declared as PUBLIC
        if ( allocated (frqa) )    deallocate (frqa)
        if ( allocated (oma) )     deallocate (oma)
        if ( allocated (angl) )    deallocate (angl)
        if ( allocated (sinan) )   deallocate (sinan)
        if ( allocated (cosan) )   deallocate (cosan)
        if ( allocated (dep_tbl) ) deallocate (dep_tbl)
        allocate(frqa(nrng))
        allocate(oma(nrng))
        allocate(angl(nang))
        allocate(sinan(nang))
        allocate(cosan(nang))
        allocate(dep_tbl(ndep))
!!      ----------------------------------------------------------------
!!
!!-1a   Initialize frequency arrays and related parameters
!!      --------------------------------------------------
        oma(:)   = SIG(1:NK)           !* get it from WW3 SIG(1:NK)
        frqa(:)  = oma(:) / twopi
        f0       = frqa(1)
        dfrq     = XFR                 !* WW3 freq mult. for log freq
                                       !* get it from WW3 XFR
!!      ----------------------------------------------------------------
!!
!!-1b   Initialize direction arrays and related parameters
!!      --------------------------------------------------
        angl(:)  = TH(1:NTH)           !* get it from WW3 TH(1:NTH)
        cosan(:) = ECOS(1:NTH)         !* get it from WW3 ECOS(1:NTH)
        sinan(:) = ESIN(1:NTH)         !* get it from WW3 ESIN(1:NTH)
        ainc     = DTH                 !* WW3 angle increment (radians)
                                       !* get it from WW3 DTH
!!      ----------------------------------------------------------------
!!
!!-1c   Define kzone & nb2fp
!!kz
!!      kzone = zone of freq influence, function of dfrq
!!      for different values of x = 2,3,4 & 5
!!      So,    kzone(x) = INT( alog(x)/alog(dfrq) )
!!      +--------+----------+----------+----------+----------+
!!      | dfrq   | kzone(2) | kzone(3) | kzone(4) | kzone(5) |
!!      +--------+----------+----------+----------+----------+
!!      | 1.05   |    14    |    22    |    28    |    33    |
!!      +--------+----------+----------+----------+----------+
!!      | 1.07   |    10    |    16    |    20    |    24    |
!!      +--------+----------+----------+----------+----------+
!!      | 1.10   |     7    |    11    |    14    |    17    |
!!      +--------+----------+----------+----------+----------+
        kzone = INT( alog(2.0)/alog(dfrq) )  !* Bash; faster without loss of accuracy
!kz     kzone = INT( alog(3.0)/alog(dfrq) )  !* as in gridsetr & snlr_'s
!kz     kzone = INT( alog(4.0)/alog(dfrq) )  !* as in gridsetr & snlr_'s
!kz     kzone = INT( alog(5.0)/alog(dfrq) )  !* as in gridsetr & snlr_'s
!!kz---
!!
!!op2
!!      nb2fp = # of bins over fp (not incl. fp) - this depends on dfrq
!!              so that (dfrq**nb2fp)*fp ~ 2.*fp  (like kzone(2))
!!              used in 1 bin equi. range
        nb2fp = INT( alog(2.0)/alog(dfrq) )  !* for equi. range near 2*fp
!!      -- - - - - - - - - - - - - - - - - - - - - - - - - - - - - !!op2
!!      ================================================================
!!
!!
!!-2    Allocate gridsetr 11 look-up tables arrays
!!      plus     pha_tbl array dim=(nrng,ndep) declared as PUBLIC
        if ( allocated (kref2_tbl) ) deallocate (kref2_tbl)
        if ( allocated (kref4_tbl) ) deallocate (kref4_tbl)
        allocate(kref2_tbl(npts,nang,nzz,ndep))
        allocate(kref4_tbl(npts,nang,nzz,ndep))
!!
        if ( allocated (jref2_tbl) ) deallocate (jref2_tbl)
        if ( allocated (jref4_tbl) ) deallocate (jref4_tbl)
        allocate(jref2_tbl(npts,nang,nzz,ndep))
        allocate(jref4_tbl(npts,nang,nzz,ndep))
!!
        if ( allocated (wtk2_tbl) ) deallocate (wtk2_tbl)
        if ( allocated (wtk4_tbl) ) deallocate (wtk4_tbl)
        allocate(wtk2_tbl(npts,nang,nzz,ndep))
        allocate(wtk4_tbl(npts,nang,nzz,ndep))
!!
        if ( allocated (wta2_tbl) ) deallocate (wta2_tbl)
        if ( allocated (wta4_tbl) ) deallocate (wta4_tbl)
        allocate(wta2_tbl(npts,nang,nzz,ndep))
        allocate(wta4_tbl(npts,nang,nzz,ndep))
!!
        if ( allocated (tfac2_tbl) ) deallocate (tfac2_tbl)
        if ( allocated (tfac4_tbl) ) deallocate (tfac4_tbl)
        allocate(tfac2_tbl(npts,nang,nzz,ndep))
        allocate(tfac4_tbl(npts,nang,nzz,ndep))
!!
        if ( allocated (grad_tbl) ) deallocate (grad_tbl)
        allocate(grad_tbl(npts,nang,nzz,ndep))
!!
        if ( allocated (pha_tbl) ) deallocate (pha_tbl)
        allocate(pha_tbl(nrng,ndep))
!!      ----------------------------------------------------------------
!!      ================================================================
!!
!!
!!-3    Allocate gridsetr 11 returned arrays declared as PUBLIC
        if ( allocated (kref2) ) deallocate (kref2)
        if ( allocated (kref4) ) deallocate (kref4)
        allocate(kref2(npts,nang,nzz))
        allocate(kref4(npts,nang,nzz))
!!
        if ( allocated (jref2) ) deallocate (jref2)
        if ( allocated (jref4) ) deallocate (jref4)
        allocate(jref2(npts,nang,nzz))
        allocate(jref4(npts,nang,nzz))
!!
        if ( allocated (wtk2) ) deallocate (wtk2)
        if ( allocated (wtk4) ) deallocate (wtk4)
        allocate(wtk2(npts,nang,nzz))
        allocate(wtk4(npts,nang,nzz))
!!
        if ( allocated (wta2) ) deallocate (wta2)
        if ( allocated (wta4) ) deallocate (wta4)
        allocate(wta2(npts,nang,nzz))
        allocate(wta4(npts,nang,nzz))
!!
        if ( allocated (tfac2) ) deallocate (tfac2)
        if ( allocated (tfac4) ) deallocate (tfac4)
        allocate(tfac2(npts,nang,nzz))
        allocate(tfac4(npts,nang,nzz))
!!
        if ( allocated (grad) ) deallocate (grad)
        allocate(grad(npts,nang,nzz))
!!      ----------------------------------------------------------------
!!      ================================================================
!!
!!
!!-4    Allocate shloxr/shlocr 5 returned arrays declared as PUBLIC
        if ( allocated (wk2x) ) deallocate (wk2x)
        if ( allocated (wk2y) ) deallocate (wk2y)
        allocate(wk2x(npts))
        allocate(wk2y(npts))
!!
        if ( allocated (wk4x) ) deallocate (wk4x)
        if ( allocated (wk4y) ) deallocate (wk4y)
        allocate(wk4x(npts))
        allocate(wk4y(npts))
!!
        if ( allocated (ds) ) deallocate (ds)
        allocate(ds(npts))
!!      ----------------------------------------------------------------
!!      ================================================================
!!
!!
!!-5    Allocate w3snlx/optsa2 2 shared arrays declared as PUBLIC
        if ( allocated (ef2) ) deallocate (ef2)
        if ( allocated (ef1) ) deallocate (ef1)
        allocate(ef2(nrng,nang))
        allocate(ef1(nrng))
!!      ----------------------------------------------------------------
!!      ================================================================
!!
!!
!!-6    Allocate optsa2 2 returned arrays declared as PUBLIC
        if ( allocated (dens1) ) deallocate (dens1)
        if ( allocated (dens2) ) deallocate (dens2)
        allocate(dens1(nrng,nang))
        allocate(dens2(nrng,nang))
!!      ----------------------------------------------------------------
!!      ================================================================
!!
!!
!!-7    Allocate snlr_??? 2 returned arrays declared as PUBLIC
        if ( itsa .eq. 1) then
!!        allocate tsa, diag  used for -tsa
          if ( allocated (tsa) ) deallocate (tsa)
          if ( allocated (diag) ) deallocate (diag)
          allocate(tsa(nrng,nang))
          allocate(diag(nrng,nang))
        elseif ( itsa .eq. 0) then
!!        allocate fbi, diag2 used for -fbi
          if ( allocated (fbi) ) deallocate (fbi)
          if ( allocated (diag2) ) deallocate (diag2)
          allocate(fbi(nrng,nang))
          allocate(diag2(nrng,nang))
        else
          write ( ndse,1000 ) itsa
          CALL EXTCDE ( 115 )
        endif
!!      ----------------------------------------------------------------
!!      ================================================================
!!
!!
!!-8    Get the 11 look-up table arrays by calling INSNL4
!!      ----------------------------------------------------------------
!!
!!      ----------------------------------------------------------------
!!      -- - - - - - - - - - - - - - - - - - - - - - - - - - - - - - - -
        call INSNL4
!!      -- - - - - - - - - - - - - - - - - - - - - - - - - - - - - - - -
!!
!!      it returns: 11 look-up tables arrays dim=(npts,nang,nzz,ndep)
!!                  kref2_tbl, kref4_tbl, jref2_tbl, jref4_tbl,
!!                  wtk2_tbl,  wtk4_tbl,  wta2_tbl,  wta4_tbl,
!!                  tfac2_tbl, tfac4_tbl & grad_tbl
!!                  plus       pha_tbl  dim=(nrng,ndep)
!!                  and        dep_tbl  dim=(ndep)
!!      -- - - - - - - - - - - - - - - - - - - - - - - - - - - - - - - -
!!      ----------------------------------------------------------------
!!      ================================================================
!!
!!
        FIRST_TSA  = .FALSE.
!!
!!
      ENDIF    !! IF ( FIRST_TSA ) THEN
!!    ------------------------------------------------------------------
!!    ==================================================================
!!    ##################################################################
!!
!!
!!
!!*i1 Map input ww3 "DEPTH" to "dep" and find corresp. depth bin # "nd3"
!!    ------------------------------------------------------------------
      dep = DEPTH                !* ww3 depth at a given time & loc.
      nd3 = MINLOC( abs(dep - dep_tbl(:)), dim=1 )
!prt  print *, 'DEPTH, corresp depth bin # (nd3)  = ', DEPTH, nd3
!!    ------------------------------------------------------------------
!!
!!
!!*i2 Map from Look-up tables the 11 gridsetr arrays corresp. to "nd3"
!!    kref2(:,:,:) -> grad(:,:,:) are used in subrs. "snlr_*"
!!    ------------------------------------------------------------------
      kref2(:,:,:) = kref2_tbl(:,:,:,nd3)
      kref4(:,:,:) = kref4_tbl(:,:,:,nd3)
      jref2(:,:,:) = jref2_tbl(:,:,:,nd3)
      jref4(:,:,:) = jref4_tbl(:,:,:,nd3)
      wtk2(:,:,:)  = wtk2_tbl(:,:,:,nd3)
      wtk4(:,:,:)  = wtk4_tbl(:,:,:,nd3)
      wta2(:,:,:)  = wta2_tbl(:,:,:,nd3)
      wta4(:,:,:)  = wta4_tbl(:,:,:,nd3)
      tfac2(:,:,:) = tfac2_tbl(:,:,:,nd3)
      tfac4(:,:,:) = tfac4_tbl(:,:,:,nd3)
      grad(:,:,:)  = grad_tbl(:,:,:,nd3)
      pha(:)       = pha_tbl(:,nd3)
!!    ------------------------------------------------------------------
!!
!!
!!*i3 Map input ww3 arrays "WN(:)" & "CG(:)" to "wka(:)" & "cga(:)"
!!    Note; Arrays wka(:) & cga(:) corresp to ww3 "DEPTH" & to be used in "optsa2"
!!    ------------------------------------------------------------------
      wka(:)  = WN(1:NK)               !* Wavenumber array at ww3 "DEPTH"
      cga(:)  = CG(1:NK)               !* Group velocity array at ww3 "DEPTH"
!!    ------------------------------------------------------------------
!!
!!
!!*i4 Convert input WW3 2D Action Density spectrum "A(theta,k)"
!!    to 2D Energy Density spectrum "ef2(theta,f)" & reverse indices
!!    ==>  ef2(f,theta) = A(theta,k) * 2*pi*oma(f)/cga(f)
!!    ------------------------------------------------------------------
      do 32 irng=1,nrng
        fac = twopi*oma(irng)/cga(irng)
        do 31 iang=1,nang
          ef2(irng,iang) = A(iang,irng) * fac
  31    continue
  32  continue
!!    ------------------------------------------------------------------
!!
!!
!!*i5 Calculte the 1D Energy Density "ef1(f)"
!!    ------------------------------------------------------------------
      do 42 irng=1,nrng
        sum1 = 0.0
        do 41 iang=1,nang
          sum1 = sum1 + ef2(irng,iang)
  41    continue
        ef1(irng) = sum1 * ainc
  42  continue
!!    ------------------------------------------------------------------
!!    ==================================================================
!!    $$$$$$$$$$$$$$$$$$$$$$$$$$$$$$$$$$$$$$$$$$$$$$$$$$$$$$$$$$$$$$$$$$
!!------------------------------------------------------------------------------
!!==============================================================================
!!
!!
!!op2
!!*   Bash;
!!*   Find 1 or 2 peaks that satisfy TSA min condition (below) ------- *
!!*   before calling TSA subrs. otherwise bailout (return) ----------- *
!!*   Bailout & return with init. values of S & D = 0.0 -------------- *
!!*   nsep   = min # of bins that separates between npk & npk2 (set=2) *
!!*   nbins  = actual # of bins > npk  (incl. nfs)  -- or --           *
!!*            actual # of bins > npk2 (incl. nrng)                    *
!!*            to guarantee a min 1 bin in equi. range                 *
!!*                                                                    *
!!*   ===>  In case of just 1 peak the TSA min condition ------------- *  *****
!!*   ===>  is relative to nrng and is satisfied when ---------------- *  <<<<<
!!*   ===>  npk.le.nrng-1, to guarantee min 1 bin (incl nrng) > npk -- *  <<<<<
!!*   ===>  we only need 1 bin in optsa2 to be in the equi. range ---- *  <<<<<
!!*   ===>  skip if condition is not met ie if  npk.gt.nrng-1  ------- *  <<<<<
!!*   ---------------------------------------------------------------- *
!!*                                                                    *
!!*   ===>  In case of 2 peaks the TSA min condition is applied twice: *  *****
!!*   ===>   *1) at low freq peak (npk), *2) at high freq peak (npk2)  *  *****
!!*   ===> *1) TSA min condition for the low freq peak (npk) --------- *  *****
!!*   ===>  is relative to nfs and is satisfied when ----------------- *  <<<<<
!!*   ===>  npk.le.nfs-1, to guarantee min 1 bin (incl nfs) > npk2 --- *  <<<<<
!!*   ===>  we only need 1 bin in optsa2 to be in the equi. range ---- *  <<<<<
!!*   ===>  skip if condition is not met ie if  npk.gt.nfs-1  -------- *  <<<<<
!!*                                                                    *
!!*   ===> *2) TSA min condition for the high freq peak (npk2) ------- *  *****
!!*   ===>  is relative to nrng and is satisfied when ---------------- *  <<<<<
!!*   ===>  npk2.le.nrng-1 to guarantee min 1 bin (incl nrng) > npk2   *  <<<<<
!!*   ===>  we only need 1 bin in optsa2 to be in the equi. range ---- *  <<<<<
!!*   ===>  skip if condition is not met ie if  npk2.gt.nrng-1 ------- *  <<<<<
!!*   ---------------------------------------------------------------- *
!!    ------------------------------------------------------------ !!op2
!!    ==================================================================
!!
!!op2 ctd
!!    First find the overall peak in ef1(:) with e1max must be > 0.000001
!!    Starting from low freq. find the Energy max "e1max" and
!!    corresp. peak freq. "fpk" and its freq. number "npk".
!!    -- - - - - - - - - - - - - - - - - - - - - - - - - - - - - - - - -
      npk    = 0
      fpk    = 0.0
      e1max  = 0.0
      npeaks = 0
!!    Look in the freq range that works for TSA call (see condition below)
      do 43 irng=2,nrng-1             !* last peak loc. is at nrng-1      <<<<<
!!      Pick the 1st local abs. max in [2,nrng-1] using (ef1(irng).gt.e1max)
!!      so that if 2 equal adj. peaks are found it will pick the 1st e1max
!!      encountered (i.e. the lower freq. one)
!!      --------------------------------------------------------------!*  <<<<<
        if ( ef1(irng).gt.ef1(irng-1) .and. ef1(irng).gt.ef1(irng+1)  &
                                      .and. ef1(irng).gt.e1max ) then
!!      --------------------------------------------------------------!*  <<<<<
          npk    = irng               !* update npk
          fpk    = frqa(npk)          !* update fpk
          e1max  = ef1(npk)           !* update e1max
          npeaks = 1
        endif
  43  continue
!!    ------------------------------------------------------------------
!!
!!B   if a 1st peak is not found (npeaks=0 & e1max=0.0 < eps) or
!!B   if a 1st peak is found with a tiny peak energy (e1max < eps) or
!!B   if TSA min condition is not met rel. to nrng (npk.gt.nrng-1)   <<<<<
!!B   this spectrum is Not suitable for tsa, so don't call tsa
!!B   just return (don't stop) with init. values of S(:,:) and D(:,:)=0.0
!!    -- - - - - - - - - - - - - - - - - - - - - - - - - - - - - - - - -
      if ( e1max.lt.0.000001 ) return
!!    ------------------------------------------------------------ !!op2
!!    ==================================================================
!!
!!
!!op2 ctd
!!    Bash; if we are here (i.e. we did not return) then we must
!!    have found the 1st good peak (= overall peak) with e1max > eps
!!
!!    Now we look for a new 2nd peak that is at least 'nsep' bins away from
!!    the 1st peak (nsep=2) (i.e. iabs(irng-npk).gt.nsep) before 
!!    calling new "optsa2" (the 2nd peak will have e1max2 < e1max)
!!    -- - - - - - - - - - - - - - - - - - - - - - - - - - - - - - - - -
      nsep   = 2
      npk2   = 0
      fpk2   = 0.0
      e1max2 = 0.0
!!    Again look in the freq range that is in line with TSA min condition
!!    and find the 2nd highest peak with  eps < e1max2 < e1max
      do 45 irng=2,nrng-1           !* last peak loc. is at nrng-1      <<<<<
!!      Pick the 2nd local abs. max in [2,nrng-1] that is at least 'nsep'
!!      bins away from the 1st peak using (ef1(irng).ge.e1max2) so that
!!      if 2 equal adj. peaks are found it will pick the 2nd e1max2
!!      encountered (i.e. the higher freq. one)
!!      --------------------------------------------------------------!*  <<<<<
        if ( ef1(irng).gt.ef1(irng-1) .and. ef1(irng).gt.ef1(irng+1)  &
         .and. ef1(irng).ge.e1max2 .and. iabs(irng-npk).gt.nsep )  then
!!      --------------------------------------------------------------!*  <<<<<
          npk2   = irng             !* update npk2
          fpk2   = frqa(npk2)       !* update fpk2
          e1max2 = ef1(npk2)        !* update e1max2
          npeaks = 2
        endif
  45  continue
!!    ------------------------------------------------------------------
!!
!!B   if a 2nd peak is not found (npeaks=1 & e1max2=0.0 < eps)
!!B   if a 2nd peak is found with a tiny peak energy (e1max2 < eps) or
!!B   if TSA min condition is not met rel. to nrng (npk2.gt.nrng-1)   <<<<<
!!B   This 2nd peak is not suitable for tsa, drop it and stay with just 1st peak.
      if ( e1max2.lt.0.000001 ) then
        npeaks = 1
        goto 200           !* skip the remaings tests goto 200
      endif
!!    ------------------------------------------------------------ !!op2
!!    ==================================================================
!!
!!
!!
!!
!!op2 ctd
      if ( npeaks.eq.2 ) then
!!-1    Shuffle the 2 peaks (if necessary) to keep npk to be always < npk2
!!      This says nothing about which peak is the dominant peak
!!      -- - - - - - - - - - - - - - - - - - - - - - - - - - - - - - - -
        if ( npk2.lt.npk ) then
          npk0   = npk2
          npk2   = npk
          npk    = npk0                 !*  this way  npk < npk2  always
          fpk    = frqa(npk)
          fpk2   = frqa(npk2)
        endif
!!      -- - - - - - - - - - - - - - - - - - - - - - - - - - - - - - - -
!!
!!-2    here we have 2 peaks (npeaks=2) with  npk < npk2
!!      find the freq. separation "nfs" (that divide the freq. regime into 2)
!!      -- - - - - - - - - - - - - - - - - - - - - - - - - - - - - - - -
        nfs = INT ( (npk+npk2)   / 2.0 )  !* take the lower  bin # to be nfs
!b      nfs = INT ( (npk+npk2+1) / 2.0 )  !* take the higher bin # to be nfs
!!      -- - - - - - - - - - - - - - - - - - - - - - - - - - - - - - - -
      endif   !! if ( npeaks.eq.2 )
!!
 200  continue
!!    ------------------------------------------------------------ !!op2
!!    ==================================================================
!!    $$$$$$$$$$$$$$$$$$$$$$$$$$$$$$$$$$$$$$$$$$$$$$$$$$$$$$$$$$$$$$$$$$
!!
!!
!!    Bash; With the new "optsa2" you are allowed one call (if 1 peak)
!!          or 2 calls (if 2 peaks) o account for spectra with double peaks.
!!    Note; when nrmn=1 & nrmx=nrng ==> optsa2 = the old optsa
!!    -- - - - - - - - - - - - - - - - - - - - - - - - - - - - - - - - -
!!
      if ( npeaks.eq.1 ) then
!!-1    one call to optsa2 for the whole freq. regime ( 1 --> nrng )
!!      -- - - - - - - - - - - - - - - - - - - - - - - - - - - - - - - -
        nbins = nrng - npk    !* # of bins in (npk, nrng] not incl. npk
        if ( nbins.gt.nb2fp ) nbins=nb2fp !* limit equi. range to ~2.0*fp
!!      ----------------------------------------------------------------
!!      -- - - - - - - - - - - - - - - - - - - - - - - - - - - - - - - -
        call optsa2 ( 1,nrng,       npk, fpk,  nbins, wka, cga )
!!      -- - - - - - - - - - - - - - - - - - - - - - - - - - - - - - - -
!!      It returns variables dens1(nrng,nang) and dens2(nrng,nang)
!!      -- - - - - - - - - - - - - - - - - - - - - - - - - - - - - - - -
!!      ----------------------------------------------------------------
      endif   !! if ( npeaks.eq.1 )
!!    ==================================================================
!!
!!
      if ( npeaks.eq.2 ) then
!!
!!-2    Now make two calls to new "optsa2" one for each freq regime.
!!      -- - - - - - - - - - - - - - - - - - - - - - - - - - - - - - - -
        nbins = nfs - npk     !* # of bins in (npk, nfs] not incl. npk
        if ( nbins.gt.nb2fp ) nbins=nb2fp  !* limit equi. range to ~2.0*fp
!!      ---------------------------------------------------------------
!!      -- - - - - - - - - - - - - - - - - - - - - - - - - - - - - - - -
        call optsa2 ( 1,nfs,        npk, fpk,  nbins, wka, cga )
!!      -- - - - - - - - - - - - - - - - - - - - - - - - - - - - - - - -
!!      It returns variables dens1(nrng,nang) and dens2(nrng,nang)
!!      -- - - - - - - - - - - - - - - - - - - - - - - - - - - - - - - -
!!      ----------------------------------------------------------------
!!
        nbins = nrng - npk2   !* # of bins in (npk2, nrng] not incl. npk2
        if ( nbins.gt.nb2fp ) nbins=nb2fp  !* limit equi. range to ~2.0*fp
!!      ----------------------------------------------------------------
!!      -- - - - - - - - - - - - - - - - - - - - - - - - - - - - - - - -
        call optsa2 ( nfs+1,nrng,   npk2,fpk2, nbins, wka, cga )
!!      -- - - - - - - - - - - - - - - - - - - - - - - - - - - - - - - -
!!      It returns variables dens1(nrng,nang) and dens2(nrng,nang)
!!      -- - - - - - - - - - - - - - - - - - - - - - - - - - - - - - - -
!!      ----------------------------------------------------------------
!!      ================================================================
!!
!!-3    Remove the step like jump (if exists) in dens1() between nfs & nfs+1
        do 440 iang=1,nang
          sumd1 = dens1(nfs,iang)   + dens2(nfs,iang)   !* sum at nfs
          sumd2 = dens1(nfs+1,iang) + dens2(nfs+1,iang) !* sum at nfs+1
!!
!!        do 3 bin average for dens1() at nfs   and store in densat1
          densat1 = ( dens1(nfs-1,iang) + dens1(nfs,iang) +           &
                                          dens1(nfs+1,iang) ) / 3.
!!        do 3 bin average for dens1() at nfs+1 and store in densat2
          densat2 = ( dens1(nfs,iang)   + dens1(nfs+1,iang) +         &
                                          dens1(nfs+2,iang) ) / 3.
!!
!!        subtitute back into dens1(nfs,iang) & dens1(nfs+1,iang)
          dens1(nfs,iang)   = densat1             ! dens1 at nfs
          dens1(nfs+1,iang) = densat2             ! dens1 at nfs+1
!!
!!        recalculate dens2(nfs,iang) & dens2(nfs+1,iang)
          dens2(nfs,iang)   = sumd1 - densat1     ! dens2 at nfs
          dens2(nfs+1,iang) = sumd2 - densat2     ! dens2 at nfs+1
 440    continue
!!
      endif   !! if ( npeaks.eq.2 )
!!    ==================================================================
!!    $$$$$$$$$$$$$$$$$$$$$$$$$$$$$$$$$$$$$$$$$$$$$$$$$$$$$$$$$$$$$$$$$$
!!
!!
!!
!!    -----------------------------------------------------------------#
!!                                                                     !
!!    Get Snl source term and its diagonal term  from "snlr"           !
!!    for -tsa  only       use "snlr_tsa"       itsa = 1               !
!!    for -fbi  only       use "snlr_fbi"       itsa = 0               !
!!                                                                     !
!!    -----------------------------------------------------------------#
!!
!!
      if ( itsa .eq. 1) then
!!
!!      ----------------------------------------------------------------
!!      -- - - - - - - - - - - - - - - - - - - - - - - - - - - - - - - -
        call snlr_tsa ( pha, ialt )
!!      -- - - - - - - - - - - - - - - - - - - - - - - - - - - - - - - -
!!      It returns tsa(nrng,nang) & diag(nrng,nang)
!!      -- - - - - - - - - - - - - - - - - - - - - - - - - - - - - - - -
!!      ----------------------------------------------------------------
!!
!!      Pack results in proper format ---------------------------------- *
!!      S() & D() arrays are to be returned to WW3 in (k,theta) space
        do 52 irng=1,nrng
        do 51 iang=1,nang
!!        Convert the Norm. (in k) Polar tsa(k,theta) to Polar S(theta,k)
!!        and  reverse indices back to (iang,irng) as in WW3
          S(iang,irng) = tsa(irng,iang) * wka(irng)   !* <=============
          D(iang,irng) = diag(irng,iang)
!!        ---------------------------
  51    continue
  52    continue
!!      -- - - - - - - - - - - - - - - - - - - - - - - - - - - - - - - -
!!
!!
      elseif ( itsa .eq. 0) then
!!
!!
!!      ----------------------------------------------------------------
!!      -- - - - - - - - - - - - - - - - - - - - - - - - - - - - - - - -
        call snlr_fbi ( pha, ialt )
!!      -- - - - - - - - - - - - - - - - - - - - - - - - - - - - - - - -
!!      It returns fbi(nrng,nang) & diag2(nrng,nang)
!!      -- - - - - - - - - - - - - - - - - - - - - - - - - - - - - - - -
!!      ----------------------------------------------------------------
!!
!!      Pack results in proper format ---------------------------------- *
!!      S() & D() arrays are to be returned to WW3 in (k,theta) space
        do 54 irng=1,nrng
        do 53 iang=1,nang
!!        Convert the Norm. (in k) Polar fbi(k,theta) to Polar S(theta,k)
!!        and  reverse indices back to (iang,irng) as in WW3
          S(iang,irng) = fbi(irng,iang) * wka(irng)   !* <=============
          D(iang,irng) = diag2(irng,iang)
!!        --------------------------------
  53    continue
  54    continue
!!      -- - - - - - - - - - - - - - - - - - - - - - - - - - - - - - - -
!!
      else
!!
         write( ndse,1000 ) itsa
         CALL EXTCDE ( 130 )
!!       --- - - - - - - - - - - - - - - - - - - - - - - - - - - - - - -
!!
      endif
!!    ------------------------------------------------------------------
!!    ==================================================================
!!
      RETURN
!!
 1000 format ( ' W3SNL4 Error : Bad itsa value ',i4)
!!
      END SUBROUTINE W3SNL4
!!
!!==============================================================================
!!$$$$$$$$$$$$$$$$$$$$$$$$$$$$$$$$$$$$$$$$$$$$$$$$$$$$$$$$$$$$$$$$$$$$$$$$$$$$$$
!!
!!    -- - - - - - - - - - - - - - - - - - - - - - - - - - - - - - - - -
      SUBROUTINE gridsetr ( dep, wka1, cgnrng1 )
!!    -- - - - - - - - - - - - - - - - - - - - - - - - - - - - - - - - -
!/
!/                  +-----------------------------------+
!/                  | WAVEWATCH III                 BIO |
!/                  |           Bash Toulany            |
!/                  |           Michael Casey           |
!/                  |           William Perrie          |
!/                  |                        FORTRAN 90 |
!/                  | Last update :         12-Apr-2016 |
!/                  +-----------------------------------+
!/
!/    01-Mar-2016 : Origination.                        ( version 5.13 )
!/
!!    ------------------------------------------------------------------
!!
!!    it returns: kref2,kref4, jref2,jref4, wtk2,wtk4, wta2,wta4,
!!                tfac2,tfac4  and    grad       all dim=(npts,nang,nzz)
!!
!!    -- - - - - - - - - - - - - - - - - - - - - - - - - - - - - - - - -
!!    ------------------------------------------------------------------
!!    ==================================================================
!!
!!
!! 1. Purpose :
!!
!!    -------------------------------------------------------------------------#
!!                                                                             !
!!    This routine sets up the geometric part of the Boltzmann integral        !
!!    based on a grid of wave frequencies and directions, with wave-           !
!!    numbers related to frequency and depth by linear dispersion.  It         !
!!    is adapted from Don's original code with changes to modify the           !
!!    indexing so there are fewer unused elements, and a number of algo-       !
!!    rithmic changes that are mathematically equivalent to Don's but          !
!!    take advantage of intrinsic functions to form smooth results with        !
!!    less reliance on if statements.                                          !
!!                                                                             !
!!    It calls locus-solving routines shloxr and shlocr and coupling           !
!!    coefficient routine cplshr.  If shlocr does not converge, ierr_gr        !
!!    will be something other than 0 and the routine will terminate,           !
!!    returning ierr_gr to the calling program (see shlocr).                   !
!!                                                                             !
!!    It returns array grad(,,), which is an estimate of the product           !
!!    C(k1,k2,k3,k4)*H(k1,k3,k4)*ds/|dW/dn| (where n and the k's are all       !
!!    vectors) as given, for example, by Eq.(7) of 'Nonlinear energy           !
!!    fluxes and the finite depth equilibrium range in wave spectra,'          !
!!    by Resio, Pihl, Tracy and Vincent (2001, JGR, 106(C4), p. 6985),         !
!!    as well as arrays for indexing, interpolating and weighting locus-       !
!!    based wavenumber vectors within the discrete solution grid.              !
!!    -------------------------------------------------------------------------#
!!
!!
!! 2. Method :
!!
!! 3. Parameters : 
!!
!!    Parameter list 
!!    ------------------------------------------------------------------
!!    Name     Type   Scope    I/O  Description
!!    ------------------------------------------------------------------
!!    nrng      int.  Public    I   # of freq. or rings
!!    nang      int.  Public    I   # of angles
!!    npts      int.  Public    I   # of points on the locus
!!    nzz       int.  Public    I   linear irngxkrng = (NK*(NK+1))/2
!!    kzone     int.  Public    I   zone of influence = INT(alog(4.0)/alog(dfrq))
!!    na2p1     int.  Public    I   = nang/2 + 1
!!    np2p1     int.  Public    I   = npts/2 + 1
!!    ------------------------------------------------------------------
!!
!!    dfrq      Real  Public    I   frequency multiplier for log freq. spacing
!!    f0        Real  Public    I   = frqa(1); first freq. (Hz)
!!    twopi     Real  Public    I   = TPI; WW3i 2*pi = 8.*atan(1.) (radians)
!!    ainc      Real  Public    I   = DTH; WW3 angle increment (radians)
!!    dep       Real  local     I   = depth (m)
!!    frqa      R.A.  Public    I   = oma(:)/twopi WW3 frequency array dim=(nrng)
!!    angl      R.A.  Public    I   = TH(1:NTH);   WW3 angles array       dim=(nang)
!!    sinan     R.A.  Public    I   = ESIN(1:NTH); WW3 sin(angl(:)) array dim=(nang)
!!    cosan     R.A.  Public    I   = ECOS(1:NTH); WW3 cos(angl(:)) array dim=(nang)
!!    wka1      R.A.  local     I   = wavenumber array at one depth dim=(nrng)
!!    cgnrng1   Real  local     I   = Group Vel. at nrng at one depth
!!    ------------------------------------------------------------------
!!
!!    *** The 11 grid integration geometry arrays at one given depth
!!    *** from gridsetr.            dim=(npts,nang,nzz,ndep)
!!    kref2     I.A.  Public    O   Index of reference wavenumber for k2
!!    kref4     I.A.  Public    O   Idem for k4
!!    jref2     I.A.  Public    O   Index of reference angle      for k2
!!    jref4     I.A.  Public    O   Idem for k4
!!    wtk2      R.A.  Public    O   k2 Interpolation weigth along wavenumbers
!!    wtk4      R.A.  Public    O   Idem for k4
!!    wta2      R.A.  Public    O   k2 Interpolation weigth along angles
!!    wta4      R.A.  Public    O   Idem for k4
!!    tfac2     R.A.  Public    O   Norm. for interp Action Density at k2
!!    tfac4     R.A.  Public    O   Idem for k4
!!    grad      R.A.  Public    O   Coupling and gradient term in integral
!!                                  grad = C * H * g**2 * ds / |dW/dn|
!!    ------------------------------------------------------------------
!!
!! 4. Subroutines used :
!!
!!     Name      Type  Module   Description
!!    ------------------------------------------------------------------
!!     shloxr    Subr. W3SERVMD General locus solution for input vectors
!!                              k1 & k3 when |k1| .eq. |k3|
!!     shlocr    Subr. W3SERVMD General locus solution for input vectors
!!                              k1 & k3 when |k1| .ne. |k3|
!!     cplshr    Subr. W3SERVMD Calculates Boltzmann coupling coefficient
!!                              in shallow water
!!    ------------------------------------------------------------------
!! 
!! 5. Called by : 
!! 
!!     Name      Type  Module   Description 
!!    ------------------------------------------------------------------
!!     insnl4    Subr. W3SNL4MD initialize the grid geometry
!!    ------------------------------------------------------------------
!! 
!! 6. Error messages : 
!! 
!!      None. 
!! 
!! 7. Remarks : 
!! 
!! 8. Structure : 
!! 
!!    See source code. 
!! 
!! 9. Switches : 
!! 
!!    !/S  Enable subroutine tracing. 
!! 
!!10. Source code : 
!! 
!!    --------------------------------------------------------------- &
!!    -- - - - - - - - - - - - - - - - - - - - - - - - - - - - - - - - -
!!    ----------------------------------------------------------------72
!!    ==================================================================
!!
!!
      IMPLICIT NONE
!!
!!    Parameter list
!!    --------------
      real,    intent(in)  :: dep
      real,    intent(in)  :: wka1(nrng), cgnrng1  !* Use new names locally
!!    -- - - - - - - - - - - - - - - - - - - - - - - - - - - - - - - - -
!!    ------------------------------------------------------------------
!!
!!
!!    Local Parameters & variables
!!    -----------------------------
      integer              :: irng,krng, iang,kang, ipt
      integer              :: iizz, izz, ir, i
      integer              :: kmax               !* = min(irng+kzone, nrng)
!!
      real                 :: g, gsq
      real                 :: alf0,aldfrq, wk1x,wk1y, wk3x,wk3y
!!
      real                 :: wn2,th2, wn2d,tnh2, om2,f2,cg2, tt2,w2
      real                 :: wn4,th4, wn4d,tnh4, om4,f4,cg4, tt4,w4
      real                 :: dWdnsq,dWdn, dif13,dif14, er
!!
!!hv  Bash; with !hv ON, move Heaviside section up & don't use var Heaviside
!hv   real                 :: Heaviside
!!hv---
!!
      real                 :: csq
!!    -- - - - - - - - - - - - - - - - - - - - - - - - - - - - - - - - -
!!    ---------------------::-----------------------------------------72
!!    ##################################################################
!!------------------------------------------------------------------------------
!!==============================================================================
!!
!!
!!    initial constants
!!    ------------------
      g      = 9.806                              !* set = GRAV as in CONSTANTS
      gsq    = 96.157636                          !* set = GRAV**2
!!
      alf0   = alog(frqa(1))                      !* ln(f0) for ir calc. below
      aldfrq = alog(dfrq)                         !* ln(dfrq)       "
!!
!!ini
!!    initialize array grad
!!    ----------------------
      grad(:,:,:)  = 0.0
      kref2(:,:,:) = 0
      kref4(:,:,:) = 0
      jref2(:,:,:) = 0
      jref4(:,:,:) = 0
      wtk2(:,:,:)  = 0.0
      wtk4(:,:,:)  = 0.0
      wta2(:,:,:)  = 0.0
      wta4(:,:,:)  = 0.0
      tfac2(:,:,:) = 0.0
      tfac4(:,:,:) = 0.0
!!ini---
!!------------------------------------------------------------------------------
!!
!!
!!    irng and iang are k1 parameters; krng and kang are k3 parameters
      iang = 1                               !* set = 1 and will remain = 1
!!
!!20
      do 20 irng=1,nrng
!!kz
        kmax = min(irng+kzone, nrng)   !* Bash; Sometimes a locus pt is outside nrng
!kz     kmax = min(irng+kzone, nrng-1) !* Bash; Taking 1 out will not affect kzone, try it
!!kz---
!!kz---
!!
        wk1x   = wka1(irng)
        wk1y   = 0.0                         !* set = 0.0 and will remain = 0.0
        iizz = (nrng-1)*(irng-1)-((irng-2)*(irng-1))/2
!!30
!!kz
        do 30 krng=irng,kmax
!!kz---
!kz     do 30 krng=irng,nrng
!!
!!        Bash; check1 - change this ratio from > 4 to > 3   and
!!              make it consistent with similar test done in subr. snlr_'s
!kz       if ( frqa(krng)/frqa(irng) .gt. 2. ) go to 30  !* Bash; use .gt. 2 for speed
!kz       if ( frqa(krng)/frqa(irng) .gt. 3. ) go to 30  !* original snlr_'s
!kz       if ( frqa(krng)/frqa(irng) .gt. 4. ) go to 30  !* original gridsetr
!!kz---
          izz = krng+iizz
!!40
          do 40 kang=1,nang
!!
            wk3x = wka1(krng)*cosan(kang)
            wk3y = wka1(krng)*sinan(kang)
!!
            if ( krng.eq.irng ) then              !* wn3 = wn1
!!
!!ba1         Bash; skip k1 but keep the opposite angle to k1 - orig setting
!!ba1               remember here iang = 1
              if ( kang .eq. 1 ) go to 40         !* th3 = th1
!!ba1---
!!            ----------------------------------------------------------
!!            -- - - - - - - - - - - - - - - - - - - - - - - - - - - - -
              call shloxr ( dep,       wk1x,wk1y,wk3x,wk3y )
!!            -- - - - - - - - - - - - - - - - - - - - - - - - - - - - -
!!            it returns: wk2x, wk2y, wk4x, wk4y & ds all dim=(npts)
!!                        and all are PUBLIC
!!            -- - - - - - - - - - - - - - - - - - - - - - - - - - - - -
!!            ----------------------------------------------------------
!!
            else                                  !* wn3 > wn1
!!
!!            ----------------------------------------------------------
!!            -- - - - - - - - - - - - - - - - - - - - - - - - - - - - -
              call shlocr ( dep,       wk1x,wk1y,wk3x,wk3y )
!!            -- - - - - - - - - - - - - - - - - - - - - - - - - - - - -
!!            it returns: wk2x, wk2y, wk4x, wk4y & ds all dim=(npts)
!!                        and all are PUBLIC
!!            -- - - - - - - - - - - - - - - - - - - - - - - - - - - - -
!!            ----------------------------------------------------------
!!
            end if   !!  if ( krng.eq.irng )
!!
!!          set the Heaviside coefficient
!b          dif13 = (wk1x-wk3x)**2   +  (wk1y-wk3y)**2        !* wk1y = 0.0
!b          dif13 = (wk1x-wk3x)**2   +       (wk3y)**2
            dif13 = (wk1x-wk3x)*(wk1x-wk3x) + wk3y*wk3y
!!50
            do 50 ipt=1,npts
!!
!!xlc1        Bash; skip k1 but keep the opposite angle to k1 - original setting
              if ( kang.eq.1 ) then                        !* th3=+th1, iang=1
                if (ipt.eq.1 .or. ipt.eq.np2p1) go to 50   !* skip x-axis loci
              end if
!!xlc1---
!!            ----------------------------------------------------------
!!
!!hv          Bash; with !hv ON, move Heaviside section from below to here
!!            Bash moved this section here. *** Check first compute after ***
!!            Skip first then compute only if Heaviside=1, without using it
!!            i.e. compute only if dif13.le.dif14 with Heaviside=1 omitted.
!!            Note; with !hv option is ON, you don't need to turn options
!!            ----  !k19p1 nor !cp4 ON.aYou only need one of the three.
!!            ----------------------------------------------------------
!!            set the Heaviside coefficient
!b            dif14 = (wk1x-wk4x(ipt))**2 + (wk1y-wk4y(ipt))**2 !* wk1y=0.0
!b            dif14 = (wk1x-wk4x(ipt))**2 +      (wk4y(ipt))**2
              dif14 = (wk1x-wk4x(ipt))*(wk1x-wk4x(ipt)) +             &
                                             wk4y(ipt)*wk4y(ipt)
!!
              if ( dif13 .gt. dif14 ) go to 50    !* skip, don't compute
!!
!b            if ( dif13 .gt. dif14 ) then
!b               Heaviside = 0.                   !* Eq(12) of RPTV
!b               go to 50
!b            else
!b               Heaviside = 1.                   !* Eq(11) of RPTV
!b            end if
!!hv---
!!            ----------------------------------------------------------
!!
!!            Set the coupling coefficient for ipt'th locus position
!!            ----------------------------------------------------------
!!            -- - - - - - - - - - - - - - - - - - - - - - - - - - - - -
              call cplshr ( wk4x(ipt),wk4y(ipt), wk3x,wk3y,           &
                            wk2x(ipt),wk2y(ipt), dep, csq,            &
                            irng,krng,kang,ipt )
!!            -- - - - - - - - - - - - - - - - - - - - - - - - - - - - -
!!            it returns: the coupling coefficient  csq
!!            -- - - - - - - - - - - - - - - - - - - - - - - - - - - - -
!!            ----------------------------------------------------------
!!
!!wn2         Set parameters related to ipt'th locus wavenumber vector k2
!!            ----------------------------------------------------------
!b            wn2  = sqrt(wk2x(ipt)**2 + wk2y(ipt)**2)               !* k2
              wn2  = sqrt(wk2x(ipt)*wk2x(ipt) + wk2y(ipt)*wk2y(ipt)) !* k2
              th2  = atan2(wk2y(ipt),wk2x(ipt))                !* k2 direction
              if ( th2 .lt. 0. ) th2 = th2 + twopi             !* +ve in radians
              wn2d = wn2*dep                                   !* k2*depth
              tnh2 = tanh(wn2d)                                !* tanh(k2*depth)
[...]
!!            ----------------------------------------------------------
!!
!!            for -fbi
!fbi          sumintp(irng,iang) = sumintp(irng,iang) + trp31*pha(krng)
!fbi          sumintp(krng,kang) = sumintp(krng,kang) - trp31*pha(irng)
!!
!!            for -fbi
!fbi          sumintx(irng,iang) = sumintx(irng,iang) + trx31*pha(krng)
!fbi          sumintx(krng,kang) = sumintx(krng,kang) - trx31*pha(irng)
!!            ----------------------------------------------------------
!!
!!            for -tsa : -diag
              diag(irng,iang) = diag(irng,iang)  + diagk1*pha(krng)
              diag(krng,kang) = diag(krng,kang)  - diagk3*pha(irng)
!!            ----------------------------------------------------------
!!
!!            for -fbi : -diag2
!fbi          diag2(irng,iang) = diag2(irng,iang) + diag2k1*pha(krng)
!fbi          diag2(krng,kang) = diag2(krng,kang) - diag2k3*pha(irng)
!!            ----------------------------------------------------------
!!
  80        continue                              !* end of kang loop
!!
  70      continue                                !* end of krng loop
!!
  60    continue                                  !* end of iang loop
!!
  50  continue                                    !* end of irng loop
!!------------------------------------------------------------------------------
!!==============================================================================
!!
!!
!!    Final sum-up to get Snl and diag. term to be returned
!!
!!    for -tsa
      tsa(:,:)   = sumint(:,:) + sumintsa(:,:)
!b    diag(:,:)  = diag(:,:)   !* is Ok, already summed up
!!
!!    for -fbi
!fbi  fbi(:,:)   = sumint(:,:) + sumintp(:,:) + sumintx(:,:)
!b    diag2(:,:) = diag2(:,:)  !* is Ok, already summed up
!!    --------------------------------------------------------------------------
!!    ==========================================================================
!!
!!
!!alt Call interp2 only if ialt=2,
!!    Interpolate bi-linearly to fill in tsa/fbi & diag/diag2 arrays
!!    after alternating the irng, iang, krng & kang loops above
!!    ------------------------------------------------------------------
      if ( ialt.eq.2 ) then
!!      for -tsa
        call interp2 ( tsa )
        call interp2 ( diag )
!!
!!      for -fbi
!fbi    call interp2 ( fbi )
!fbi    call interp2 ( diag2 )
      endif
!!alt---
!!    --------------------------------------------------------------------------
!!    ==========================================================================
!!
      RETURN
!!
      END SUBROUTINE snlr_tsa
!!
!!==============================================================================
!!$$$$$$$$$$$$$$$$$$$$$$$$$$$$$$$$$$$$$$$$$$$$$$$$$$$$$$$$$$$$$$$$$$$$$$$$$$$$$$
!!
!!    -- - - - - - - - - - - - - - - - - - - - - - - - - - - - - - - - -
      SUBROUTINE interp2 ( X )
!!    -- - - - - - - - - - - - - - - - - - - - - - - - - - - - - - - - -
!/
!/                  +-----------------------------------+
!/                  | WAVEWATCH III                 BIO |
!/                  |           Bash Toulany            |
!/                  |           Michael Casey           |
!/                  |           William Perrie          |
!/                  |                        FORTRAN 90 |
!/                  | Last update :         12-Apr-2016 |
!/                  +-----------------------------------+
!/
!/    01-Mar-2016 : Origination.                        ( version 5.13 )
!/
!!
!! 1. Purpose :
!!
!!    Interpolate bi-linearly to fill in tsa/fbi & diag/diag2 arrays
!!    and then (optional) smooth the interior and the corners
!!    after alternating the irng, iang, krng & kang loops in snlr's
!!
!! 2. Method :
!! 
!! 3. Parameters :
!!    
!!    Parameter list
!!    ------------------------------------------------------------------
!!    Name     Type   Scope    I/O  Description
!!    ------------------------------------------------------------------
!!    nrng      int.  Public    I   # of freq. or rings
!!    nang      int.  Public    I   # of angles 
!!    ismo      int.  Local     I   switch;  ismo=0 skip smoothing
!!                                           ismo.ne.0 do smoothing
!!    X         R.A.  Local    I/O  Array to be ineterp. & smoothing
!!                                  its returned to snlr_tsa as tsa or diag
!!                                           and to snlr_fbi as fbi or diag2
!!                                           dim=(nrng,nang)
!!    ------------------------------------------------------------------
!!
!! 4. Subroutines used :
!!
!!     Name      Type  Module   Description
!!    ----------------------------------------------------------------
!!    ----------------------------------------------------------------
!!
!! 5. Called by :
!!
!!     Name      Type  Module   Description
!!    ----------------------------------------------------------------
!!     snlr_tsa  Subr. W3SNL4MD Computes dN(k,theta)/dt for TSA
!!     --------                 due to wave-wave inter. (set itsa = 1)
!!     snlr_fbi  Subr. W3SNL4MD Computes dN(k,theta)/dt for FBI
!!     --------                 due to wave-wave inter. (set itsa = 0)
!!    ----------------------------------------------------------------
!!
!! 6. Error messages :
!!
!!      None.
!!
!! 7. Remarks :
!!
!! 8. Structure :
!!
!!    See source code.
!!
!! 9. Switches :
!!
!!    !/S  Enable subroutine tracing.
!!
!!10. Source code :
!!
!!    --------------------------------------------------------------- &
!!    -- - - - - - - - - - - - - - - - - - - - - - - - - - - - - - - - -
!!    ----------------------------------------------------------------72
!!    ==================================================================
!!
!!
      IMPLICIT NONE
!!
!!
!!    Parameter list
!!    --------------
      REAL,    INTENT(INOUT)  :: X(nrng,nang)
!!    -- - - - - - - - - - - - - - - - - - - - - - - - - - - - - - - - -
!!    ------------------------------------------------------------------
!!
!!
!!    Local Parameters
!!    ----------------
      integer              :: irng, iang
      real                 :: Y(nrng,nang)  !* dummy array used in smoothing
!!    -- - - - - - - - - - - - - - - - - - - - - - - - - - - - - - - - -
!!    ---------------------::-----------------------------------------72
!!    ##################################################################
!!------------------------------------------------------------------------------
!!==============================================================================
!!     
!!     
!!-0  Initial Y(:,:) array before it's computed
!!ini
      Y(:,:) = 0.0
!!ini---
!!    ------------------------------------------------------------------
!!    ==================================================================
!!
!!
!!-1  Interpolate using simple 2 point averaging to fill in X
!!    Remeber: nang must be an even number ==> nang-2 is an even number
!!    and      nrng must be an odd  number ==> nrng-1 is an even number
!!    Example numbers used here are for nrng=35 & nang=36
!!    ------------------------------------------------------------------
!!
!!-1a For every calculated iang (1,3,5,..,nang-1=35)
!!    fill in missing irng's    (2,4,6,..,nrng-1=34)
      do 12 iang=1,nang-1,2      !* = 1,3,5,...,nang-1=35
      do 11 irng=2,nrng-1,2      !* = 2,4,6,...,nrng-1=34
        X(irng,iang) = 0.5 * ( X(irng-1,iang) + X(irng+1,iang) )
  11  continue
  12  continue
!!    ------------------------------------------------------------------
!!
!!-1b Now, for every irng (1,2,3,..,nrng  =35)
!!    fill missing iang's (2,4,6,..,nang-2=34)
      do 14 irng=1,nrng          !* 1,2,3,..,nrng  =35
      do 13 iang=2,nang-2,2      !* 2,4,6,..,nang-2=34
        X(irng,iang) = 0.5 * ( X(irng,iang-1) + X(irng,iang+1) )
  13  continue
  14  continue
!!    ------------------------------------------------------------------
!!
!!-1c for iang = nang (special case since nang is an even number)
      do 15 irng=1,nrng
        X(irng,nang) = 0.5 * ( X(irng,nang-1) + X(irng,1) )
  15  continue
!!    ------------------------------------------------------------------
!!    ==================================================================
!!
!!
!!
!!    Skip smoothing only if ismo = 0
!!
!!
      if ( ismo.eq.0 ) goto 99
!!
!!
!!
!!-2  Smoothing the 2D array X into array Y
!!
!!-2a Smoothing the interior [2;nrng-1] x [2:nang-1]
!!-   Using 9 points averaged with equal weights.
!!-   Here use the dummy array so we don't spoil the original array.
      do 22 irng=2,nrng-1
      do 21 iang=2,nang-1
        Y(irng,iang)=(X(irng-1,iang-1)+X(irng-1,iang)+X(irng-1,iang+1) + &
                      X(irng,  iang-1)+X(irng,  iang)+X(irng,  iang+1) + &
                      X(irng+1,iang-1)+X(irng+1,iang)+X(irng+1,iang+1))/9.
  21  continue
  22  continue
!!    ------------------------------------------------------------------
!!    ==================================================================
!!
!!
!!-3  Smooth first & last line at iang=1 & iang=nang  (special cases)
!!
!!-3a Smooth line at iang = 1     (special case)
!!-   Using 9 points averaged with equal weights.
      do 31 irng=2,nrng-1
        Y(irng, 1) = (X(irng-1,nang) + X(irng-1, 1) + X(irng-1, 2) +  &
                      X(irng,  nang) + X(irng,   1) + X(irng,   2) +  &
                      X(irng+1,nang) + X(irng+1, 1) + X(irng+1, 2) )/9.
  31  continue
!!    ------------------------------------------------------------------
!!
!!-3b Smooth line at iang = nang  (special case)
!!-   Using 9 points averaged with equal weights.
      do 32 irng=2,nrng-1
        Y(irng,nang)=(X(irng-1,nang-1) +X(irng-1,nang) +X(irng-1,1) + &
                      X(irng,  nang-1) +X(irng,  nang) +X(irng,  1) + &
                      X(irng+1,nang-1) +X(irng+1,nang) +X(irng+1,1))/9.
  32  continue
!!    ------------------------------------------------------------------
!!    ==================================================================
!!
!!
!!-4  Smooth first & last col. at irng=1 & irng=nrng  (special cases)
!!
!!-4a Smooth col. at irng = 1     (low frq. can be skipped)
!!-   Using 6 points averaged with equal weights.
      do 33 iang=2,nang-1
        Y(1,iang)   = (X(1,iang-1) + X(1,iang) + X(1,iang+1) +        &
                       X(2,iang-1) + X(2,iang) + X(2,iang+1) )/6.
  33  continue
!!    ------------------------------------------------------------------
!!
!!-4b Smooth col. at irng = nrng  (high frq. can be skipped)
!!-   Using 6 points averaged with equal weights.
      do 34 iang=2,nang-1
        Y(nrng,iang)=(X(nrng-1,iang-1)+X(nrng-1,iang)+X(nrng-1,iang+1)+ &
                      X(nrng, iang-1)+X(nrng, iang)+X(nrng, iang+1) )/6.
  34  continue
!!    ------------------------------------------------------------------
!!    ==================================================================
!!
!!
!!-5  Smooth the 4 corners (optional):  <== Skip no sig. effect
!!-   Using 6 points averaged with equal weights
!!
!!-5a Corner (1, 1)
      Y(1, 1)      =( X(1,nang) + X(1, 1) + X(1, 2) +                 &
                      X(2,nang) + X(2, 1) + X(2, 2) )/6.0
!!    ------------------------------------------------------------------
!!
!!-5b Corner (nrng,1)
      Y(nrng,1)    =( X(nrng-1,nang) + X(nrng-1,1) + X(nrng-1,2) +    &
                      X(nrng,  nang) + X(nrng,  1) + X(nrng,  2) )/6.0
!!    ------------------------------------------------------------------
!!
!!-5c Corner (1,nang)
      Y(1,nang)    =( X(1,nang-1) + X(1,nang) + X(1, 1) +             &
                      X(2,nang-1) + X(2,nang) + X(2, 1) ) / 6.
!!    ------------------------------------------------------------------
!!
!!-5d Corner (nrng,nang)
      Y(nrng,nang) =( X(nrng-1,nang-1) +X(nrng-1,nang) +X(nrng-1,1) + &
                      X(nrng,  nang-1) +X(nrng,  nang) +X(nrng,  1) )/6.
!!    ------------------------------------------------------------------
!!    ==================================================================
!!
!!
!!-6  Final, dump smoothed array Y(:,:) into X(:,:) to be returned
!!
!!-6a Done with X(:,:) re-initial before it's replaced by Y(:,:)
!!ini
      X(:,:) = 0.0
!!ini---
!!
!!-6b Dump smoothed array Y(:,:) into X(:,:) to be returned
      do 52 iang=1,nang
      do 51 irng=1,nrng
        X(irng,iang) = Y(irng,iang)
  51  continue
  52  continue
!!    Bash; can simplify in one line
!b    X(1:nrng, 1:nang) = Y(1:nrng, 1:nang)
!!    ------------------------------------------------------------------
!!    ==================================================================
!!
  99  continue
!!    ------------------------------------------------------------------
!!    ==================================================================
!!
!!
      RETURN
!!
      END SUBROUTINE interp2
!!
!!==============================================================================
!!$$$$$$$$$$$$$$$$$$$$$$$$$$$$$$$$$$$$$$$$$$$$$$$$$$$$$$$$$$$$$$$$$$$$$$$$$$$$$$
!!
!!    -- - - - - - - - - - - - - - - - - - - - - - - - - - - - - - - - -
      REAL FUNCTION wkfnc ( f, dep )
!!    -- - - - - - - - - - - - - - - - - - - - - - - - - - - - - - - - -
!/
!/                  +-----------------------------------+
!/                  | WAVEWATCH III                 BIO |
!/                  |           Bash Toulany            |
!/                  |           Michael Casey           |
!/                  |           William Perrie          |
!/                  |                        FORTRAN 90 |
!/                  | Last update :         12-Apr-2016 |
!/                  +-----------------------------------+
!/
!/    01-Mar-2016 : Origination.                        ( version 5.13 )
!/
!!
!!    it returns: wavenumber 'k' in wkfnc
!!
!!    -- - - - - - - - - - - - - - - - - - - - - - - - - - - - - - - - -
!!    ------------------------------------------------------------------
!!    ==================================================================
!!
!! 1. Purpose :
!!
!!    Calculate the Wavenumber k (rad/m) as function of
!!    frequency 'f' (Hz) and depth 'dep' (m).
!!
!! 2. Method :
!!
!!    Using what looks like a "Pade approximation" of an inversion
!!    of the linear wave dispersion relation.
!!        sigma^2 = gk*tanh(kd),  sigma = 2*pi*f
!!        Wavenumber k (rad/m) is returned in "wkfnc"
!!
!! 3. Parameters :
!!
!!    Parameter list
!!    ------------------------------------------------------------------
!!    Name     Type   Scope    I/O  Description
!!    ------------------------------------------------------------------
!!    twopi     Real  Public    I   = TPI; WW3 2*pi=8.*atan(1.) (radians)
!!    ------------------------------------------------------------------
!!
!!    --------------------------------------------------------------- &
!!    -- - - - - - - - - - - - - - - - - - - - - - - - - - - - - - - - -
!!    ----------------------------------------------------------------72
!!    ==================================================================
!!
!!
      IMPLICIT NONE
!!
!!    Parameter list
!!    --------------
      real,    intent(in)  :: f, dep
!!
!!    Local variables
!!    ---------------
      real(KIND=8)         :: g, y, x
!!    -- - - - - - - - - - - - - - - - - - - - - - - - - - - - - - - - -
!!    ---------------------::-----------------------------------------72
!!    ##################################################################
!!------------------------------------------------------------------------------
!!==============================================================================
!!
!!
      g     = 9.806                   !* set = GRAV as in CONSTANTS
!!
      y     = ( (twopi*f)**2 ) * dep / g   !* sigma^2 d/g
!!
!!    --------------------------------------------------------------- &
      x     = y * ( y +                                               &
            1./(1.00000+y*(0.66667+y*(0.35550+y*(0.16084+y*(0.06320   &
            +y*(0.02174+y*(0.00654+y*(0.00171+y*(0.00039+y*0.00011)   &
            )))))))))
!!    --------------------------------------------------------------- &
!!
      x     = sqrt(x)                 !* kd
!!
      wkfnc = x / dep                 !* k
!!    ------------------------------------------------------------------
!!    ==================================================================
!!
      RETURN
!!
      END FUNCTION wkfnc
!!
!!==============================================================================
!!$$$$$$$$$$$$$$$$$$$$$$$$$$$$$$$$$$$$$$$$$$$$$$$$$$$$$$$$$$$$$$$$$$$$$$$$$$$$$$
!!
!!    -- - - - - - - - - - - - - - - - - - - - - - - - - - - - - - - - -
      REAL FUNCTION cgfnc ( f, dep, cvel )
!!    -- - - - - - - - - - - - - - - - - - - - - - - - - - - - - - - - -
!/
!/                  +-----------------------------------+
!/                  | WAVEWATCH III                 BIO |
!/                  |           Bash Toulany            |
!/                  |           Michael Casey           |
!/                  |           William Perrie          |
!/                  |                        FORTRAN 90 |
!/                  | Last update :         12-Apr-2016 |
!/                  +-----------------------------------+
!/
!/    01-Mar-2016 : Origination.                        ( version 5.13 )
!/
!!    it returns:  group velocity (m/s) in cgfnc
!!
!!    -- - - - - - - - - - - - - - - - - - - - - - - - - - - - - - - - -
!!    ------------------------------------------------------------------
!!    ==================================================================
!!
!!
!! 1. Purpose :
!!
!!    Calculate the Group velocity Cg (m/s) as function of
!!    frequency 'f' (Hz), depth 'dep' (m) and phase speed 'cvel' (m/s)
!!
!! 2. Method :
!!
!!    This routine uses the identity
!!         sinh(2x) = 2*tanh(x)/(1-tanh(x)**2)
!!    to avoid extreme sinh(2x) for large x.
!!    thus,    2kd/sinh(2kd) = kd(1-tanh(kd)**2)/tanh(kd)
!!    Group velocity Cg (m/s) is returned in "cgfnc"
!!
!! 3. Parameters :
!!
!!    Parameter list
!!    ------------------------------------------------------------------
!!    Name     Type   Scope    I/O  Description
!!    ------------------------------------------------------------------
!!    twopi     Real  Public    I   = TPI; WW3 2*pi=8.*atan(1.) (radians)
!!    ------------------------------------------------------------------
!!
!!    --------------------------------------------------------------- &
!!    -- - - - - - - - - - - - - - - - - - - - - - - - - - - - - - - - -
!!    ----------------------------------------------------------------72
!!    ==================================================================
!!
!!
      IMPLICIT NONE
!!
!!    Parameter list
!!    --------------
      real,    intent(in)  :: f, dep, cvel
!!
!!    Local variables
!!    ---------------
      real                 :: wkd, tkd
!!    -- - - - - - - - - - - - - - - - - - - - - - - - - - - - - - - - -
!!    ---------------------::-----------------------------------------72
!!    ##################################################################
!!------------------------------------------------------------------------------
!!==============================================================================
!!
!!
      wkd   = twopi * f*dep/cvel           !* kd
      tkd   = tanh(wkd)                    !* tanh(kd)
      cgfnc = 0.5*cvel*(1.+wkd*(1.-tkd**2)/tkd)
!!    ------------------------------------------------------------------
!!    ==================================================================
!!
      RETURN
!!
      END FUNCTION cgfnc
!!
!!==============================================================================
!!$$$$$$$$$$$$$$$$$$$$$$$$$$$$$$$$$$$$$$$$$$$$$$$$$$$$$$$$$$$$$$$$$$$$$$$$$$$$$$
!!
!!
      END MODULE W3SNL4MD
!!
!!==============================================================================
!!$$$$$$$$$$$$$$$$$$$$$$$$$$$$$$$$$$$$$$$$$$$$$$$$$$$$$$$$$$$$$$$$$$$$$$$$$$$$$$
