#include "w3macros.h"
!/ ------------------------------------------------------------------- /
      MODULE W3STRKMD
!/
!/                  +-----------------------------------+
!/                  | WAVEWATCH III           NOAA/NCEP |
!/                  |     A. J. van der Westhuysen      |
!/                  |            Jeff Hanson            |
!/                  |        Eve-Marie Devaliere        |
!/                  |                        FORTRAN 95 |
!/                  | Last update :         29-Nov-2013 |
!/                  +-----------------------------------+
!/
!/    03-Feb-2012 : Origination, based on Matlab code   ( version 4.05 )
!/                  by Jeff Hanson & Eve-Marie Devaliere
!/    04-Jan-2013 : Inclusion in trunk                  ( version 4.08 )
!/    29-Nov-2013 : Remove DOC control characters,
!/                  update MPI! to MPI/! (H. L. Tolman). ( version 4.15 )
!/    26-Sep-2016 : Optimization updates (A. van der Westhuysen) 
!/                                                      ( version 5.15 )
!/
!/    Copyright 2009-2013 National Weather Service (NWS),
!/       National Oceanic and Atmospheric Administration.  All rights
!/       reserved.  WAVEWATCH III is a trademark of the NWS. 
!/       No unauthorized use without permission.
!/
      IMPLICIT NONE
!
!  1. Purpose :
!
!     Module containing data structures and subroutines for spatial and 
!     temporal tracking (part of wave partitioning).
!
!  2. Method :
!
!     Read raw partitioning data.
!     Perform tracking in space.
!     Perform tracking in time.
!
!  3. Variables and types :
!
!     NOTE: In Fortran 90/95 derived types cannot contain allocatable arrays.
!           The same functionality is achieved here using pointers (pointing 
!           to unnamed allocatable arrays). Can be replaced by allocatable arrays
!           when transitioning to the Fortran 2003 standard.
!
!     Name    Type       Description
!     ----------------------------------------------------------------
!     param   Der. type  structure of basic spectrally partitioned results at a geo point
!     hs      Real arr   array of sign. wave height partitions
!     tp      Real arr   array of peak period partitions
!     dir     Real arr   array of mean direction partitions
!     dspr    Real arr   array of mean directional spread (one-sided) of partitions
!     wf      Real arr   array of wind fraction
!     ipart   Int arr    array of partition indices
!     sys     Int arr    array of system indices to which a given partition has been assigned
!     ngbrSys Int arr    array of system indices of neighboring grid points
!     checked    Int      0 = geo point not checked yet (in SUBROUTINE findSys)
!                         1 = geo point has been checked
!                        -1 = geo land point (i.e. no partitioning data found for this point)
!                        -2 = geo land point, second passing.
!
      TYPE param
         REAL    :: hs(10)
         REAL    :: tp(10)
         REAL    :: dir(10)
         REAL    :: dspr(10)
!         REAL    :: wf(10)
         INTEGER :: ipart(10)
         INTEGER :: sys(10)
         INTEGER :: ngbrSys(50)
         INTEGER :: checked
      END TYPE param
!      
!     wind    Der. type     structure containing wind-related parameters
!     wdir       Real       wind direction at grid point (Nautical or Cartesian, invariant)
!     wspd       Real       wind speed at grid point
!
      TYPE wind
         REAL    :: wdir
         REAL    :: wspd
      END TYPE wind
!
!     dat2d   Der. type     2d data structure for storing raw partitioned data
!     lat     Real arr      2d array of latitudes of input partitioned data
!     lon     Real arr      2d array of longitudes of input partitioned data
!     par  type(param) arr  2d array of partitioned parameter structures
!     wnd  type(wind) arr   2d array of wind parameter structures
!     maxi    Int           size of 2d array of raw partitioned data in i dimension
!     maxj    Int           size of 2d array of raw partitioned data in j dimension
!
      TYPE dat2d
         REAL*8               :: date
         REAL, POINTER        :: lat(:,:)
         REAL, POINTER        :: lon(:,:)
         TYPE(param), POINTER :: par(:,:)
         TYPE(wind), POINTER  :: wnd(:,:)
         INTEGER              :: maxi
         INTEGER              :: maxj
      END TYPE dat2d
!
!     neighbr  Der. type    structure for storing data of neighboring grid point
!     par     type(param)   partitioned parameter structure at neighboring grid point
!     i          Int        i index of neighboring grid point
!     j          Int        j index of neighboring grid point
!
      TYPE neighbr
         TYPE(param) :: par
         INTEGER     :: i
         INTEGER     :: j
      END TYPE neighbr
!
!     mtchsys  Der. type    structure for storing data of matched systems 
!     sysVal   Int arr      array of indices of matched systems
!     tpVal    Real arr     array of peak period values of matched systems 
!     wfVal    Real arr     array of wind fraction values of matched systems 
!
      TYPE mtchsys
         INTEGER     :: sysVal(50)
         REAL        :: tpVal(50)
         REAL        :: dirVal(50)
         REAL        :: hsVal(50)
!         REAL        :: wfVal(50)
      END TYPE mtchsys
!
!     system   Der. type    structure for storing spatially tracked systems (one time level)
!     hs       Real arr     sign wave height field assoc with wave system (in 1d array)
!     tp       Real arr     peak period field assoc with wave system (in 1d array)
!     dir      Real arr     mean direction field assoc with wave system (in 1d array)
!     dspr     Real arr     mean directional spread field assoc with wave system (in 1d array)
!     wf       Real arr     wind fraction assoc with wave system (in 1d array)
!     i        Int arr      i index of geo grid point in wave system (in 1d array)
!     j        Int arr      j index of geo grid point in wave system (in 1d array)
!     lat      Real arr     latitudes of grid point in wave system (in 1d array)
!     lon      Real arr     longitudes of grid point in wave system (in 1d array)
!     sysInd   Int          index of current wave system
!     hsMean   Real         spatial mean sign wave height of current wave system
!     tpMean   Real         spatial mean peak period of current wave system
!     dirMean  Real         spatial mean wave direction of current wave system
!     wfMean   Real         spatial mean wind fraction of current wave system
!     nPoints  Int          total number of grid points in current wave system
!     ngbr     Int arr      indices of neighboring wave systems
!     grp      Int          time-tracked group that system is assigned to
!
      TYPE system
         REAL, POINTER    :: hs(:)
         REAL, POINTER    :: tp(:)
         REAL, POINTER    :: dir(:)
         REAL, POINTER    :: dspr(:)
!         REAL, POINTER    :: wf(:)
         INTEGER, POINTER :: i(:)
         INTEGER, POINTER :: j(:)
         INTEGER, POINTER :: indx(:)
         REAL, POINTER    :: lat(:)
         REAL, POINTER    :: lon(:)
         INTEGER          :: sysInd
         REAL             :: hsMean
         REAL             :: tpMean
         REAL             :: dirMean
!         REAL             :: wfMean
         INTEGER          :: nPoints
         INTEGER          :: ngbr(1000)
         INTEGER          :: grp
      END TYPE system
!
!     timsys   Der. type     structure for storing time-tracked systems (all time levels)
!     sys  type(system) arr  array of all spatially+temporally tracked systems at given 
!                            time level   
!
      TYPE timsys
         TYPE(system), POINTER :: sys(:)
      END TYPE timsys
!
!     sysmemory  Der. type   Structure to store key characteristics of systems over multiple 
!                            time levels. Used during the time tracking routine.
!
      TYPE sysmemory
         INTEGER :: grp
         INTEGER :: nPoints
         INTEGER, POINTER :: indx(:)
         INTEGER :: updated
         INTEGER :: length
         REAL    :: lonMean
         REAL    :: latMean
         REAL    :: tpMean
         REAL    :: dirMean
      END TYPE sysmemory
!
!  4. Subroutines and functions used :
!
!     a. Main subroutines for spatial/temporal tracking:
!
!     waveTracking_NWS_V2  main subroutine of spatial and temporal tracking algorithm
!     spiralTrackV3        performs the spatial spiral tracking for a given time step  
!     timeTrackingV2       performs the time tracking of all wave systems
!
!     b. Auxiliary subroutines and functions for tracking:
!
!     findWay              find direction and no. steps in spatial search spiral
!     findNext             find next point on spatial search spiral
!     findSys              find all neighboring wave systems for given grid point
!     combineWaveSystems   combine wave systems, then remove small and low-energy systems
!     printFinalSys        output the final output systems for this time step
!     combineSys           combine wave systems
!     combinePartitionsV2  combine two partitions that have been assigned to the same system
!     func. mean_angleV2   compute the mean direction from array of directions
!     findIJV3             Find indices of system "a" that lie over or next to system "b"
!
!     c. Simple data maniputation (based on Matlab intrinsic functions):
!
!     UNIQUE               removes duplicate reals from an vector
!     SORT                 sorts the vector in ascending or descending order
!     SETDIFF              returns elements in vector1 that are not in vector2
!     INTERSECT            returns elements that are mutual in vector1 and vector2
!     UNION                returns the union of vector1 and vector2
!     func. LENGTH         finds no. of indices in vector not filled with blank entries. 
!     func. FINDFIRST      returns index of first instance of a search value in vector
!     func. STD            computes standard deviation
!
!  5. Called by :
!
!     WW3_SYSTRK (main program)
!
!  6. Error messages :
!
!  7. Remarks :
!
!  8. Structure :
!
!     The structure of the tracking algorithm is the following
!     (parentheses indicate minor subroutines and functions):
!
!     +---- SUBROUTINE waveTracking_NWS_V2       main subroutine of spatial and temporal tracking algorithm
!     |        (CALL UNIQUE)                     removes duplicate reals from an vector
!     |        CALL spiralTrackV3                See below
!     |        CALL timeTrackingV2               See below
!     |
!     +---+--- SUBROUTINE spiralTrackV3          performs the spatial spiral tracking for a given time step
!     |   |       CALL findWay                   find direction and no. steps in spatial search spiral
!     |   |       CALL findNext                  find next point on spatial search spiral
!     |   |       CALL findSys                   See below
!     |   |       CALL combineWaveSystems        See below
!     |   |
!     |   +------ SUBROUTINE findSys             find all neighboring wave systems for given grid point
!     |   |          (CALL UNIQUE)
!     |   |          CALL combinePartitionsV2    combine two partitions that have been assigned to the same system
!     |   |
!     |   +---+-- SUBROUTINE combineWaveSystems  combine wave systems, then remove small and low-energy systems
!     |       |      CALL printFinalSys          See below
!     |       |      CALL combineSys             See below
!     |       |
!     |       +----- SUBROUTINE printFinalSys    output the final output systems for this time step
!     |       |         (CALL UNIQUE)      
!     |       |         (CALL SETDIFF)           returns elements in vector1 that are not in vector2
!     |       |         (CALL SORT)              sorts the vector in ascending or descending order
!     |       |
!     |       +----- SUBROUTINE combineSys       combine wave systems
!     |                 (CALL SORT)
!     |                 (CALL UNIQUE)
!     |                 (CALL UNION)             returns the union of vector1 and vector2
!     |                 (CALL SETDIFF)
!     |                 CALL findIJV3            Find indices of system "a" that lie over or next to system "b"
!     |                 CALL combinePartitionsV2
!     |
!     +------- SUBROUTINE timeTrackingV2         performs the time tracking of all wave systems
!                 (CALL SORT)
!                 (CALL SETDIFF)
!
!  9. Switches :
!
!       !/SHRD  Switch for shared / distributed memory architecture.
!       !/MPI   Id.
!
! 10. Source code :
!
!/ ------------------------------------------------------------------- /
!/
      CONTAINS
!/ ------------------------------------------------------------------- /
      SUBROUTINE waveTracking_NWS_V2 (intype     ,tmax       , &
                                      tcur       ,filename   , &
                                      tstart     ,tend       , &
                                      dt         ,ntint      , & 
                                      minlon     ,maxlon     , & 
                                      minlat     ,maxlat     , &
                                      mxcwt      ,mycwt      , &
                                      dirKnob    ,             &
                                      perKnob    ,hsKnob     , &
                                      wetPts     ,seedLat    , &
                                      seedLon    ,dirTimeKnob, &
                                      tpTimeKnob ,paramFile  , &
                                      sysA       ,wsdat      , &
                                      maxSys     ,maxGroup   )
!/
!/                  +-----------------------------------+
!/                  | WAVEWATCH III           NOAA/NCEP |
!/                  |     A. J. van der Westhuysen      |
!/                  |            Jeff Hanson            |
!/                  |        Eve-Marie Devaliere        |
!/                  |                        FORTRAN 95 |
!/                  | Last update :          4-Jan-2013 |
!/                  +-----------------------------------+
!/
!/    03-Feb-2012 : Origination, based on Matlab code   ( version 4.05 )
!/                  by Jeff Hanson & Eve-Marie Devaliere
!/    04-Jan-2013 : Inclusion in trunk                  ( version 4.08 )
!/
!/    Copyright 2009-2013 National Weather Service (NWS),
!/       National Oceanic and Atmospheric Administration.  All rights
!/       reserved.  WAVEWATCH III is a trademark of the NWS. 
!/       No unauthorized use without permission.
!/
      IMPLICIT NONE
!/MPI
!/MPI      INCLUDE "mpif.h"
!
!  1. Purpose :
!
!     Main subroutine of spatial and temporal tracking algorithm
!
!  2. Method
!
!     (1) Read the raw partitioning output from one of two file formats:
!         (a) "partRes" format of IFP-SWAN (intype=1), or 
!         (b) WW3 spectral bulletin format (intype=2).
!         If intype=0, the partition data is read from memory (not activated yet). 
!    
!     (2) Perform tracking in space by calling subroutine spiralTrackV3
!     (3) Perform tracking in time by caling subroutine timeTrackingV2
!
!  3. Parameters :
!
!     Parameter list
!     ----------------------------------------------------------------
!     intype         Int       input  For coupling: Type of input (0 = memory; 1 = partRes file; 2 = WW3 part file)
!     tmax           Int       input  For coupling: Value of maxTs to apply (1 or 2)
!     tcur           Int       input  For coupling: Index of current time step (1 or 2)
!     filename       Char      input  File name of locally partitioned data output
!     tstart         Char      input  Start time in raw partition file (if used)
!     tend           Char      input  End time in raw partition file (if used)
!     minlon         Real      input  Lower lon boundary of domain to be processed
!     maxlon         Real      input  Upper lon boundary of domain to be processed
!     minlat         Real      input  Lower lat boundary of domain to be processed
!     maxlat         Real      input  Upper lat boundary of domain to be processed
!     dirKnob        Real      input  Parameter in direction for combining fields in space
!     perKnob        Real      input  Parameter in period for combining fields in space
!     hsKnob         Real      input  Parameter in wave height for purging fields
!     wetPts         Real      input  Percentage of wet points for purging fields (fraction) 
!     seedLat        Real      input  Start Lat for tracking spiral (if =0 centre of field is used)
!     seedLon        Real      input  Start Lon for tracking spiral (if =0 centre of field is used) 
!     dirTimeKnob    Real      input  Parameter in direction for combining fields in time
!     tpTimeKnob     Real      input  Parameter in period for combining fields in time
!     paramFile      Char      input  File name of partitioning parameters                           Is this used???
!     sys         TYPE(timsys) output Final set of spatially and temporally tracked systems
!     wsdat       TYPE(dat2d)  output Final version of 2D (gridded) partition data
!     maxGroup       Int       output Maximum number of wave systems ("groups") tracked in time
!
      CHARACTER    :: filename*50, paramFile*32
      REAL         :: dirKnob, perKnob, hsKnob, wetPts, seedLat, &
                      seedLon, dirTimeKnob, tpTimeKnob
      REAL*8       :: tstart, tend
      INTEGER      :: maxGroup, intype, tmax, tcur, ntint
      INTEGER, POINTER :: maxSys(:)
      TYPE(dat2d), POINTER :: wsdat(:)
      TYPE(timsys), POINTER :: sysA(:), sysAA(:)
      INTEGER      :: NumConsSys, iConsSys
      REAL         :: dt
      REAL         :: minlon, maxlon, minlat, maxlat 
      INTEGER      :: mxcwt, mycwt

!     Note: Variables wsdat, sysA and maxSys have IN/OUT intent so that they 
!     can be manipulated outside of this subroutine, e.g. re-indexing of 
!     systems and groups during the simulation. 
      INTENT (IN)  intype, tmax, tcur, filename, paramFile, &
                   minlon, maxlon, minlat, maxlat, & 
                   hsKnob, wetPts, seedLat, seedLon, &
                   dirKnob, perKnob, dirTimeKnob, tpTimeKnob
      INTENT (OUT) maxGroup
!      INTENT (IN OUT) wsdat, sysA, maxSys
!
!     Local variables
!     ----------------------------------------------------------------
!     code     Char    Partitioning field code, from input file (not used)
!     llat     Real    Latitude of partition point, from input file 
!     llon     Real    Longitude of partition point, from input file
!     ts       Real    Time step of partition, from input file
!     hs0      Real    Wave height of partition, from input file
!     tp0      Real    Peak period of partition, from input file
!     dir0     Real    Mean direction of partition, from input file
!     dspr0    Real    Mean directional spread of partition, from input file
!     wf0      Real    wind fraction of partition, from input file
!     wndSpd0  Real    Wind speed of partition, from input file
!     wndDir0  Real    Wind direction of partition, from input file
!     wndFce0  Real    Wind force of partition, from input file (not, used)
!     tss      Int.    Time step counter
!     t0       Int     Index of first time step to compute
!
      LOGICAL                :: file_exists, FLFORM
      LOGICAL                :: testout
      PARAMETER (testout = .FALSE.)
      CHARACTER, ALLOCATABLE :: code(:) *12
      CHARACTER              :: dummy*15, dummy2*10
      CHARACTER(LEN=10)      :: VERPRT
      CHARACTER(LEN=35)      :: IDSTR
      CHARACTER(LEN=86)      :: headln1
      CHARACTER(LEN=59)      :: headln2
      INTEGER                :: line
      INTEGER, ALLOCATABLE   :: ts(:)
      REAL, ALLOCATABLE      :: llat(:),llon(:),hs0(:), &
                                tp0(:),dir0(:),dspr0(:),wf0(:),&
                                wndSpd0(:),wndDir0(:),wndFce0(:)
      REAL*8, ALLOCATABLE :: date0(:)
      INTEGER    :: maxTs, t0, nout1, nout2, maxI, maxJ
      REAL, ALLOCATABLE :: mlon(:,:), mlat(:,:)
      REAL, POINTER :: uniqueTim(:),uniqueLatraw(:),uniqueLonraw(:), &
                       uniqueLat(:),uniqueLon(:)
      INTEGER    :: ierr, i, j, k, l, alreadyIn, ok, tss, tsA, counter
      INTEGER    :: tstep, iline, numpart, skipln, readln, filesize
      REAL       :: invar1, invar2, invar3, invar4
      REAL       :: invar5, invar6, invar7
      REAL*8     :: date1, date2, ttest, ttemp
      INTEGER    :: ic, leng, maxpartout                                  ! Remove?
      REAL       :: dx
      INTEGER    :: latind1, latind2, lonind1, lonind2
      REAL       :: lonext, latext

!/MPI      INTEGER    :: rank, irank, nproc, EXTENT, DOMSIZE, tag1, tag2
!/MPI/!      INTEGER    :: MPI_INT_DOMARR, MPI_REAL_DOMARR 
!/MPI      INTEGER    :: MPI_STATUS(MPI_STATUS_SIZE)
!/MPI      INTEGER    :: REQ(16), ISTAT(MPI_STATUS_SIZE,16)
!/MPI      REAL       :: COMMARR1(44)
!/MPI      INTEGER    :: COMMARR2(11)
!
!  4. Subroutines used :
!
!      Name      Type  Module   Description
!     ----------------------------------------------------------------
!      UNIQUE
!      spiralTrackV3
!      timeTrackingV2
!
!  5. Subroutines calling
!
!      WW3_SYSTRK (main program)
!
!  6. Error messages :
!
!  7. Remarks :
!
!  8. Structure :
!
!     See above
!
!  9. Switches :
!
!     None defined yet.
!
! 10. Source code :
!
!/ ------------------------------------------------------------------- /

!/MPI      CALL MPI_COMM_RANK(MPI_COMM_WORLD, rank, ierr)
!/MPI      CALL MPI_COMM_SIZE(MPI_COMM_WORLD, nproc, ierr)

      FLFORM = .TRUE.

!     Select input type for raw partitioning data
      IF ((intype.EQ.1).OR.(intype.EQ.2)) THEN
!        Raw partitioning data is coming from an input file.
!        Read file here, and set up 2d array wsdat with the data.
         t0 = 1
         IF (intype.EQ.1) THEN
!/MPI            IF (rank.EQ.0) THEN
!           Read partRes format file
            WRITE(20,*) 'Reading partRes partitioning file...'
            filesize = 7500000
            ALLOCATE(code(filesize))
            ALLOCATE(ts(filesize))
            ALLOCATE(llat(filesize))
            ALLOCATE(llon(filesize))
            ALLOCATE(hs0(filesize))
            ALLOCATE(tp0(filesize))
            ALLOCATE(dir0(filesize))
            ALLOCATE(dspr0(filesize))
!            ALLOCATE(wf0(filesize))
            ALLOCATE(wndSpd0(filesize))
            ALLOCATE(wndDir0(filesize))
            ALLOCATE(wndFce0(filesize))
            ALLOCATE(date0(filesize))
            WRITE(20,*) '*** Max number of lines read from "partRes" ', &
                    'input file is = ',filesize,'!'
            WRITE(6,*) 'Reading partRes file...'
            INQUIRE(FILE=filename, EXIST=file_exists)
            IF (.NOT.file_exists) THEN
               WRITE(20,2001)
               WRITE(6,2001)
               CALL ABORT
            END IF
            OPEN(unit=11,file=filename,status='old')
            line = 1
            DO WHILE (.TRUE.)
               READ (11, *, END=113) code(line),llat(line),llon(line), &
                            ts(line),hs0(line),tp0(line),dir0(line), &
                            wndSpd0(line),wndDir0(line),wndFce0(line)
               !partRes file does not contain the dspr variable
               dspr0(line) = 9999.
!               wf0(line) = 9999.
               line = line+1
            ENDDO
 113        IERR = -1
            CLOSE(11)
            line = line-1
            WRITE(6,*) '... finished'
            IF (ALLOCATED(code)) DEALLOCATE(code)
            IF (ALLOCATED(wndFce0)) DEALLOCATE(wndFce0)
!            DEALLOCATE(date0)
!/MPI            END IF
         ELSE IF (intype.EQ.2) THEN
!/MPI            IF (rank.EQ.0) THEN
!           Read WW3 Spectral Partition format file
            WRITE(20,*) 'Reading raw partition file...'
!           Query input file to determine required array sizes
            WRITE(6,*) 'Reading raw partition file...'
            INQUIRE(FILE=filename, EXIST=file_exists)
            IF (.NOT.file_exists) THEN
               WRITE(20,2001)
               WRITE(6,2001)
               CALL ABORT
            END IF
!            OPEN(unit=11,file=filename,status='old')
            IF (FLFORM) THEN
!              Input file in formatted ASCII
               OPEN(unit=11,file=filename,status='old')
               DO i = 1,3
                  READ(11, *)
               END DO
            ELSE
!              Input file in unformatted binary
               WRITE(6,*) 'Reading binary formatted file...'
               OPEN(unit=11,file=filename,form='UNFORMATTED', &
                    status='OLD')
               REWIND(11)
               READ(11) IDSTR,VERPRT,headln1,headln2
            END IF

            skipln = 3
            ttest = 0

            DO WHILE (ttest.LT.tstart)
              IF (FLFORM) THEN
                 READ (11,1000,END=110) date1,date2,invar1,invar2, &
                                        numpart,invar3,invar4
              ELSE   
                 READ (11) date1,date2,invar1,invar2, &
                            dummy2,numpart,invar3,invar4, &
                            invar5,invar6,invar7
              END IF     
              ttest = date1 + date2/1000000
              IF (FLFORM) THEN
                 DO line = 1,numpart
                   READ (11,*)
                 END DO
              ELSE
                 DO line = 1,numpart
                   READ (11)
                 END DO
              END IF
              skipln = skipln+numpart+1
            END DO
            skipln = skipln-numpart-1

!           Read file for ntint time levels
            readln = 0
            tstep = 1
            ttemp = tstart
            DO WHILE (.TRUE.)
              IF (readln.GT.0) THEN
                 IF (FLFORM) THEN
                    READ (11,1000,END=111) date1,date2,invar1,invar2, &
                                           numpart,invar3,invar4
                 ELSE
                    READ (11,END=111) date1,date2,invar1,invar2, &
                            dummy2,numpart,invar3,invar4, &
                            invar5,invar6,invar7
                 END IF
              END IF
    
              ttest = date1 + date2/1000000
              IF (ttest.GT.ttemp) THEN
                 tstep = tstep+1
                 ttemp = ttest
                 IF (tstep.GT.ntint) EXIT
              END IF
              IF (FLFORM) THEN
                 DO line = 1,numpart+1
                   READ (11,*)
                 END DO
              ELSE
                 DO line = 1,numpart+1
                   READ (11)
                 END DO
              END IF
              readln = readln+numpart+1
            ENDDO
 111        CONTINUE
          
            CLOSE(11)

            ALLOCATE(code(readln))
            ALLOCATE(ts(readln))
            ALLOCATE(llat(readln))
            ALLOCATE(llon(readln))
            ALLOCATE(hs0(readln))
            ALLOCATE(tp0(readln))
            ALLOCATE(dir0(readln))
            ALLOCATE(dspr0(readln))
!            ALLOCATE(wf0(readln))
            ALLOCATE(wndSpd0(readln))
            ALLOCATE(wndDir0(readln))
            ALLOCATE(wndFce0(readln))
            ALLOCATE(date0(readln))

!            OPEN(unit=11,file=filename,status='old')
            IF (FLFORM) THEN
               OPEN(unit=11,file=filename,status='old')
            ELSE
               OPEN(unit=11,file=filename,status='old', &
                    form='unformatted')
            END IF 
            line = 1
            tstep = 0

!           Skip to start time
            IF (FLFORM) THEN
               DO i = 1,skipln
                  READ (11, *)
               END DO
            ELSE
               DO i = 1,skipln
                  READ (11)
               END DO
            END IF
            DO WHILE (line.LE.readln)
              IF (FLFORM) THEN
                 READ (11,1000,END=112) date1,date2,invar1,invar2, &
                                        numpart,invar3,invar4
              ELSE
                 READ (11,END=112) date1,date2,invar1,invar2, &
                            dummy2,numpart,invar3,invar4, &
                            invar5,invar6,invar7
              END IF

!             Partition 0 is the total field - skip this
              IF (FLFORM) THEN
                 READ (11, *)
              ELSE
                 READ (11)
              END IF
!             Reduce the number of lines to be read by 1 to take care of skipped line
              readln = readln-1
              DO iline = line,(line+numpart-1)
                IF (FLFORM) THEN
                   READ (11,1010,END=112) hs0(iline),tp0(iline), &
                                      dir0(iline),dspr0(iline)
                ELSE
                   READ (11,END=112) hs0(iline),tp0(iline), &
                                      dir0(iline),dspr0(iline)
                END IF
                date0(iline) = date1 + date2/1000000
                IF (date0(iline).GT.date0(MAX(iline-1,1))) tstep=tstep+1
                IF ((tstep+1).GT.ntint) GOTO 110
                ts(iline) = tstep
                code(iline) = ''
                llat(iline) = invar1
                llon(iline) = invar2
                wndSpd0(iline) = invar3
                wndDir0(iline) = invar4
              END DO
              line = iline
            ENDDO
 1000       FORMAT(F9.0,F7.0,F8.3,F8.3,14X,I3,7X,F5.1,F6.1)
 1010       FORMAT(3X,F8.2,F8.2,8X,F9.2,F9.2)

 112        CONTINUE
 110        IERR = -1
            IF (line.EQ.0) THEN
               WRITE(20,2002)
               WRITE(6,2002)
               CALL ABORT
            END IF
            CLOSE(11)
            line = line-1
            WRITE(6,*) '... finished'
            IF (ALLOCATED(code)) DEALLOCATE(code)
            IF (ALLOCATED(wndFce0)) DEALLOCATE(wndFce0)
 2001       FORMAT (/' *** WAVEWATCH III ERROR IN W3SYSTRK : '/    &
                     '     ERROR IN OPENING INPUT FILE'/)
 2002       FORMAT (/' *** WAVEWATCH III ERROR IN W3SYSTRK : '/    &
                     '     PREMATURE END OF INPUT FILE'/)
!/MPI            END IF
         END IF

!/MPI         IF (rank.EQ.0) THEN
         ts=ts+1;
!        Find unique time steps (and sort in ascending order)
         CALL UNIQUE(REAL(ts),SIZE(ts),uniqueTim,maxTs)

!        Find unique lat and lon values (and sort in ascending order)
         CALL UNIQUE(llat(1:line),SIZE(llat(1:line)),uniqueLatraw,nout1)
         CALL UNIQUE(llon(1:line),SIZE(llon(1:line)),uniqueLonraw,nout2)

!--042916-----------------------
!
!        Redefine uniqueLatraw and uniqueLonrawto based on domain extent
         WRITE(20,*) 'uniqueLatraw(:) =', uniqueLatraw(:)
         WRITE(20,*) 'uniqueLonraw(:) =', uniqueLonraw(:)

         WRITE(20,*) 'No. increments: Longitude, Latitue =', mxcwt, mycwt
         DEALLOCATE(uniqueLatraw)
         DEALLOCATE(uniqueLonraw)
         ALLOCATE(uniqueLatraw(mycwt+1))
         ALLOCATE(uniqueLonraw(mxcwt+1))
         DO i = 1,(mycwt+1)
            uniqueLatraw(i) =  minlat + & 
                               (REAL(i)-1)/REAL(mycwt)*(maxlat-minlat)
         END DO
         DO i = 1,(mxcwt+1)
            uniqueLonraw(i) =  minlon + &
                               (REAL(i)-1)/REAL(mxcwt)*(maxlon-minlon)
         END DO
         WRITE(20,*) 'uniqueLatraw(:) =', uniqueLatraw(:)
         WRITE(20,*) 'uniqueLonraw(:) =', uniqueLonraw(:)
!
!--042916-----------------------

!        Filter out lats and lons outside of domain of interest
         DO latind1 = 1,SIZE(uniqueLatraw)
            IF (uniqueLatraw(latind1).GE.minlat) EXIT
         END DO
         DO latind2 = SIZE(uniqueLatraw),1,-1
            IF (uniqueLatraw(latind2).LE.maxlat) EXIT
         END DO
         DO lonind1 = 1,SIZE(uniqueLonraw)
            IF (uniqueLonraw(lonind1).GE.minlon) EXIT
         END DO
         DO lonind2 = SIZE(uniqueLonraw),1,-1
            IF (uniqueLonraw(lonind2).LE.maxlon) EXIT
         END DO
         WRITE(20,*) 'latind1, latind2, lonind1, lonind2 =', &
                     latind1, latind2, lonind1, lonind2
         IF ((latind1.GE.latind2).OR.(lonind1.GE.lonind2)) THEN
            WRITE(20,*) '*** Error in finding domain to process - ', &
                       'Specified lat/lon limits within domain ', &
                       'of raw partition file?'
            CALL ABORT
         END IF
         NULLIFY(uniqueLat)
         NULLIFY(uniqueLon)
         ALLOCATE(uniqueLat(latind2-latind1+1))
         ALLOCATE(uniqueLon(lonind2-lonind1+1))
         uniqueLat = uniqueLatraw(latind1:latind2)
         uniqueLon = uniqueLonraw(lonind1:lonind2)
         WRITE(20,'(A,2F7.2)') &
                    'In waveTracking_NWS_V2: Longitude range =', &
                     uniqueLon(1), uniqueLon(SIZE(uniqueLon))
         WRITE(20,'(A,2F7.2)') &
                    '                        Latitude range  =', &
                     uniqueLat(1), uniqueLat(SIZE(uniqueLat))

!        Map is transposed (rotated by 90 deg), so that: 
!          I (matrix row) represents Longitute
!          J (matrix column) represents Latitude
!          i.e. from this point onwards the indices (i,j) represents Cart. coordinates
         ALLOCATE( mlon(SIZE(uniqueLon),SIZE(uniqueLat)) )
         ALLOCATE( mlat(SIZE(uniqueLon),SIZE(uniqueLat)) )
         maxI = SIZE(uniqueLon)
         maxJ = SIZE(uniqueLat)
         DO I = 1,maxI
            DO J = 1,maxJ
               mlon(I,J) = uniqueLon(I)
               mlat(I,J) = uniqueLat(J)
            END DO
         END DO
!/MPI         END IF

!/MPI         CALL MPI_BCAST(maxI,1,MPI_INTEGER,0,MPI_COMM_WORLD,IERR)
!/MPI         CALL MPI_BCAST(maxJ,1,MPI_INTEGER,0,MPI_COMM_WORLD,IERR)
!/MPI         CALL MPI_BCAST(maxTs,1,MPI_INTEGER,0,MPI_COMM_WORLD,IERR)

!        Allocate the wsdat structure
!/MPI         IF (rank.EQ.0) THEN
            WRITE(20,*) 'Allocating wsdat...'
!/MPI         END IF
         NULLIFY(wsdat)
         ALLOCATE(wsdat(maxTs))
!/MPI         IF (rank.EQ.0) THEN
            WRITE(20,*) 'SIZE(wsdat) = ',SIZE(wsdat)
!/MPI         END IF

!        Allocate and initialize the wsdat array
!/MPI         IF (rank.EQ.0) THEN
         DO tsA = 1,maxTs
            ALLOCATE(wsdat(tsA)%lat(maxI,maxJ))
            ALLOCATE(wsdat(tsA)%lon(maxI,maxJ))
            ALLOCATE(wsdat(tsA)%par(maxI,maxJ))
            ALLOCATE(wsdat(tsA)%wnd(maxI,maxJ))
      
            DO j = 1,maxJ
               DO i = 1,maxI
                  wsdat(tsA)%lat(i,j)=mlat(i,j)
                  wsdat(tsA)%lon(i,j)=mlon(i,j)
                  wsdat(tsA)%maxi=maxI
                  wsdat(tsA)%maxj=maxJ
                  wsdat(tsA)%par(i,j)%hs(1:10)=9999.
                  wsdat(tsA)%par(i,j)%tp(1:10)=9999.
                  wsdat(tsA)%par(i,j)%dir(1:10)=9999.
                  wsdat(tsA)%par(i,j)%dspr(1:10)=9999.
!                  wsdat(tsA)%par(i,j)%wf(1:10)=9999.
                  wsdat(tsA)%par(i,j)%ipart(1:10)=0
                  wsdat(tsA)%par(i,j)%sys(1:10)=9999                      ! 40.PAR Increase this array, or make allocatable  
                  wsdat(tsA)%par(i,j)%ngbrSys(1:50)=9999           
                  wsdat(tsA)%wnd(i,j)%wdir=9999.
                  wsdat(tsA)%wnd(i,j)%wspd=9999.
                  wsdat(tsA)%par(i,j)%checked=-1
               END DO
            END DO
         END DO

!        Assign to each line in partition file an entry in wsdat
         DO l = 1,line
            DO j = 1,maxJ
               DO i = 1,maxI            
!>042916                  IF ( (llat(l).EQ.mlat(i,j)).AND. &
!>042916                       (llon(l).EQ.mlon(i,j)) ) THEN
                  IF ( (ABS(llat(l)-mlat(i,j)).LT.0.01).AND. &
                       (ABS(llon(l)-mlon(i,j)).LT.0.01) ) THEN
!                     WRITE(20,*) 'MATCHED! ',l,&
!                        llat(l),mlat(i,j),ABS(llat(l)-mlat(i,j)),&
!                        llon(l),mlon(i,j),ABS(llon(l)-mlon(i,j))
                     wsdat(ts(l))%lat(i,j) = llat(l)
                     wsdat(ts(l))%lon(i,j) = llon(l)
!                    Find next free partition. Do not include more that 10
                     k = MAXVAL(wsdat(ts(l))%par(i,j)%ipart(:)) + 1
                     IF (k.GT.10) CYCLE
                     wsdat(ts(l))%date = date0(l)
                     wsdat(ts(l))%par(i,j)%hs(k) = hs0(l)
                     wsdat(ts(l))%par(i,j)%ipart(k) = k
                     wsdat(ts(l))%par(i,j)%tp(k) = tp0(l)
                     wsdat(ts(l))%par(i,j)%dir(k) = dir0(l)
                     wsdat(ts(l))%par(i,j)%dspr(k) = dspr0(l)
!                     wsdat(ts(l))%par(i,j)%wf(k) = wf0(l)
                     wsdat(ts(l))%wnd(i,j)%wdir = wndDir0(l)
                     wsdat(ts(l))%wnd(i,j)%wspd = wndSpd0(l)
                     wsdat(ts(l))%par(i,j)%checked = 0
                     GOTO 400
                  END IF
               END DO
            END DO
 400        CONTINUE
         END DO

         IF (ALLOCATED(ts)) DEALLOCATE(ts)
         IF (ALLOCATED(llat)) DEALLOCATE(llat)
         IF (ALLOCATED(llon)) DEALLOCATE(llon)
         IF (ALLOCATED(mlat)) DEALLOCATE(mlat)
         IF (ALLOCATED(mlon)) DEALLOCATE(mlon)
         IF (ALLOCATED(date0)) DEALLOCATE(date0)
         IF (ALLOCATED(hs0)) DEALLOCATE(hs0)
         IF (ALLOCATED(tp0)) DEALLOCATE(tp0)
         IF (ALLOCATED(dir0)) DEALLOCATE(dir0)
         IF (ALLOCATED(dspr0)) DEALLOCATE(dspr0)
!         IF (ALLOCATED(wf0)) DEALLOCATE(wf0)
         IF (ALLOCATED(wndSpd0)) DEALLOCATE(wndSpd0)
         IF (ALLOCATED(wndDir0)) DEALLOCATE(wndDir0)
!/MPI         END IF

!/MPI/!         Communicate the wsdat entries from rank=0 to other ranks
!/MPI          DO tsA = t0,maxTs
!/MPI             irank = MOD((tsA-t0),MIN(nproc,maxTS))
!/MPI/!             WRITE(20,*) 'Rank,irank=',rank,irank
!/MPI             IF (irank.NE.0) THEN
!/MPI/!               WRITE(20,*) 'Communicating for Rank,irank=',rank,irank
!/MPI
!/MPI                IF (rank.EQ.irank) THEN
!/MPI                   ALLOCATE(wsdat(tsA)%lat(maxI,maxJ))
!/MPI                   ALLOCATE(wsdat(tsA)%lon(maxI,maxJ))
!/MPI                   ALLOCATE(wsdat(tsA)%par(maxI,maxJ))
!/MPI                   ALLOCATE(wsdat(tsA)%wnd(maxI,maxJ))
!/MPI
!/MPI                   DO j = 1,maxJ
!/MPI                      DO i = 1,maxI
!/MPI                         wsdat(tsA)%maxi=maxI
!/MPI                         wsdat(tsA)%maxj=maxJ
!/MPI                         wsdat(tsA)%par(i,j)%hs(1:10)=9999.
!/MPI                         wsdat(tsA)%par(i,j)%tp(1:10)=9999.
!/MPI                         wsdat(tsA)%par(i,j)%dir(1:10)=9999.
!/MPI                         wsdat(tsA)%par(i,j)%dspr(1:10)=9999.
!/MPI                         wsdat(tsA)%par(i,j)%ipart(1:10)=0
!/MPI                         wsdat(tsA)%par(i,j)%sys(1:10)=9999                      ! 40.PAR Increase this array, or make allocatable  
!/MPI                         wsdat(tsA)%par(i,j)%ngbrSys(1:50)=9999           
!/MPI                         wsdat(tsA)%wnd(i,j)%wdir=9999.
!/MPI                         wsdat(tsA)%wnd(i,j)%wspd=9999.
!/MPI                         wsdat(tsA)%par(i,j)%checked=-1
!/MPI                      END DO
!/MPI                   END DO
!/MPI                END IF
!/MPI
!/MPI                DO j = 1,maxJ
!/MPI                   DO i = 1,maxI
!/MPI                      tag1 = ((j-1)*maxI+i)*10
!/MPI
!/MPI                      IF (rank.EQ.0) THEN
!/MPI/!                        WRITE(6,*) '>> Sending: rank,irank,tag1=', &
!/MPI/!                                rank,irank,(tag1+1)
!/MPI                         COMMARR1 = (/wsdat(tsA)%par(i,j)%hs(:), &
!/MPI                                      wsdat(tsA)%par(i,j)%tp(:), &
!/MPI                                      wsdat(tsA)%par(i,j)%dir(:), &
!/MPI                                      wsdat(tsA)%par(i,j)%dspr(:), &
!/MPI                                      wsdat(tsA)%wnd(i,j)%wdir, &
!/MPI                                      wsdat(tsA)%wnd(i,j)%wspd, &
!/MPI                                      wsdat(tsA)%lat(i,j), &
!/MPI                                      wsdat(tsA)%lon(i,j)/)
!/MPI                         CALL MPI_SEND(COMMARR1,44,MPI_REAL,irank, &
!/MPI                                       (tag1+1),MPI_COMM_WORLD,IERR)
!/MPI                      END IF
!/MPI                      IF (rank.EQ.irank) THEN
!/MPI/!                         WRITE(6,*) '<< Receiving: rank,irank,tag1=', &
!/MPI/!                                rank,irank,(tag1+1)
!/MPI                         CALL MPI_RECV(COMMARR1,44,MPI_REAL,0,(tag1+1), &
!/MPI                                       MPI_COMM_WORLD,MPI_STATUS,IERR)
!/MPI                         wsdat(tsA)%par(i,j)%hs = COMMARR1(1:10)
!/MPI                         wsdat(tsA)%par(i,j)%tp = COMMARR1(11:20)
!/MPI                         wsdat(tsA)%par(i,j)%dir = COMMARR1(21:30)
!/MPI                         wsdat(tsA)%par(i,j)%dspr = COMMARR1(31:40)
!/MPI                         wsdat(tsA)%wnd(i,j)%wdir = COMMARR1(41)
!/MPI                         wsdat(tsA)%wnd(i,j)%wspd = COMMARR1(42)
!/MPI                         wsdat(tsA)%lat(i,j) = COMMARR1(43)
!/MPI                         wsdat(tsA)%lon(i,j) = COMMARR1(44)
!/MPI                      END IF
!/MPI
!/MPI                      IF (rank.EQ.0) THEN
!/MPI                         CALL MPI_SEND(wsdat(tsA)%date,1, &
!/MPI                              MPI_DOUBLE_PRECISION,irank, &
!/MPI                              (tag1+2),MPI_COMM_WORLD,IERR)
!/MPI                      END IF
!/MPI                      IF (rank.EQ.irank) THEN
!/MPI                         CALL MPI_RECV(wsdat(tsA)%date,1, &
!/MPI                              MPI_DOUBLE_PRECISION,0,(tag1+2), &
!/MPI                              MPI_COMM_WORLD,MPI_STATUS,IERR)
!/MPI                      END IF
!/MPI
!/MPI                      IF (rank.EQ.0) THEN
!/MPI/!                        WRITE(6,*) '>> Sending: rank,irank,tag1=', &
!/MPI/!                                rank,irank,(tag1+3)
!/MPI                         COMMARR2 = (/wsdat(tsA)%par(i,j)%ipart(:), &
!/MPI                                      wsdat(tsA)%par(i,j)%checked/)
!/MPI                         CALL MPI_SEND(COMMARR2,11, &
!/MPI                           MPI_INTEGER,irank,(tag1+3),MPI_COMM_WORLD,IERR)
!/MPI                      END IF
!/MPI                      IF (rank.EQ.irank) THEN
!/MPI/!                         WRITE(6,*) '<< Receiving: rank,irank,tag1=', &
!/MPI/!                                rank,irank,(tag1+3)
!/MPI                         CALL MPI_RECV(COMMARR2,11, &
!/MPI                           MPI_INTEGER,0,(tag1+3), &
!/MPI                           MPI_COMM_WORLD,MPI_STATUS,IERR)
!/MPI                         wsdat(tsA)%par(i,j)%ipart(:) = COMMARR2(1:10)
!/MPI                         wsdat(tsA)%par(i,j)%checked = COMMARR2(11)
!/MPI                      END IF
!/MPI
!/MPI                   END DO
!/MPI                END DO
!/MPI            END IF
!/MPI         END DO
!/MPI
!/MPI         CALL MPI_Barrier(MPI_COMM_WORLD,IERR)


!/MPI      IF (rank.EQ.0) THEN
! ----*** Test Output *** --------------------------------------------------
      IF (testout) THEN
!-----RAW PARTITION output: Coordinates
!      OPEN(unit=31,recl=2147483646,file='PART_COORD.OUT',status='unknown')
      OPEN(unit=31,file='PART_COORD.OUT',status='unknown')

      WRITE(31,*) 'Longitude ='
      DO j = maxJ,1,-1
         DO i = 1,maxI
            WRITE(31,'(F7.2)',ADVANCE='NO') wsdat(1)%lon(i,j)
         END DO
         WRITE(31,'(A)',ADVANCE='YES') ''
      END DO

      WRITE(31,*) 'Latitude = '
      DO j = maxJ,1,-1
         DO i = 1,maxI
            WRITE(31,'(F7.2)',ADVANCE='NO') wsdat(1)%lat(i,j)
         END DO
         WRITE(31,'(A)',ADVANCE='YES') ''
      END DO

      CLOSE(31)

!-----RAW PARTITION output: hs
!      OPEN(unit=32,recl=2147483646, file='PART_HSIGN.OUT', &
!           status='unknown')
      OPEN(unit=32, file='PART_HSIGN.OUT', &
           status='unknown')

      maxpartout = 5
      DO tsA = 1,SIZE(wsdat)
         WRITE(32,'(I4,71x,A)') tsA,'Time step'
         WRITE(32,'(I4,71x,A)') maxpartout,'Tot number of raw partitions'      
         DO k = 1,maxpartout
            WRITE(32,'(I4,71x,A)') k,'System number'  
            WRITE(32,'(I4,71x,A)') 9999,'Number of points in system'
            DO j = maxJ,1,-1
               DO i = 1,maxI
                  WRITE(32,'(F8.2)',ADVANCE='NO') wsdat(tsA)%par(i,j)%hs(k)
               END DO
               WRITE(32,'(A)',ADVANCE='YES') ''
            END DO
         END DO
      END DO

      CLOSE(32)

!-----RAW PARTITION output: tp
!      OPEN(unit=33,recl=2147483646, file='PART_TP.OUT', &
!           status='unknown')
      OPEN(unit=33, file='PART_TP.OUT', &
           status='unknown')

      DO tsA = 1,SIZE(wsdat)
         WRITE(33,'(I4,71x,A)') tsA,'Time step'
         WRITE(33,'(I4,71x,A)') maxpartout,'Tot number of raw partitions'      
         DO k = 1,maxpartout
            WRITE(33,'(I4,71x,A)') k,'System number'  
            WRITE(33,'(I4,71x,A)') 9999,'Number of points in system'
            DO j = maxJ,1,-1
               DO i = 1,maxI
                  WRITE(33,'(F8.2)',ADVANCE='NO') wsdat(tsA)%par(i,j)%tp(k)
               END DO
               WRITE(33,'(A)',ADVANCE='YES') ''
            END DO
         END DO
      END DO

      CLOSE(33)

!-----RAW PARTITION output: dir
!      OPEN(unit=34,recl=2147483646, file='PART_DIR.OUT', & 
!           status='unknown')
      OPEN(unit=34, file='PART_DIR.OUT', & 
           status='unknown')

      DO tsA = 1,SIZE(wsdat)
         WRITE(34,'(I4,71x,A)') tsA,'Time step'
         WRITE(34,'(I4,71x,A)') maxpartout,'Tot number of raw partitions'      
         DO k = 1,maxpartout
            WRITE(34,'(I4,71x,A)') k,'System number'  
            WRITE(34,'(I4,71x,A)') 9999,'Number of points in system'
            DO j = maxJ,1,-1
               DO i = 1,maxI
                  WRITE(34,'(F8.2)',ADVANCE='NO') wsdat(tsA)%par(i,j)%dir(k)
               END DO
               WRITE(34,'(A)',ADVANCE='YES') ''
            END DO
         END DO
      END DO

      CLOSE(34)

!-----RAW PARTITION output: dspr
!      OPEN(unit=35,recl=2147483646, file='PART_DSPR.OUT', & 
!           status='unknown')
      OPEN(unit=35, file='PART_DSPR.OUT', & 
           status='unknown')

      DO tsA = 1,SIZE(wsdat)
         WRITE(35,'(I4,71x,A)') tsA,'Time step'
         WRITE(35,'(I4,71x,A)') maxpartout,'Tot number of raw partitions'      
         DO k = 1,maxpartout
            WRITE(35,'(I4,71x,A)') k,'System number'  
            WRITE(35,'(I4,71x,A)') 9999,'Number of points in system'
            DO j = maxJ,1,-1
               DO i = 1,maxI
                  WRITE(35,'(F8.2)',ADVANCE='NO') & 
                     wsdat(tsA)%par(i,j)%dspr(k)
               END DO
               WRITE(35,'(A)',ADVANCE='YES') ''
            END DO
         END DO
      END DO

      CLOSE(35)
      END IF
!/MPI      END IF

! ------------------------------------------------------------------------

!        Allocate the sysA structure
!/MPI         IF (rank.EQ.0) THEN
         WRITE(20,*) 'Allocating sysA...'
!/MPI         END IF
         NULLIFY( sysA )
         ALLOCATE( sysA(maxTs) )
!/MPI         IF (rank.EQ.0) THEN
         WRITE(20,*) 'SIZE(sysA) = ',SIZE(sysA)
         WRITE(6,1020) ' Number of time levels being processed:',SIZE(sysA)
 1020    FORMAT(A,I4)
!/MPI         END IF

!        Allocate maxSys
         ALLOCATE( maxSys(maxTs) )
      ELSE
!        Raw partitioning data from wave model memory, via the array wsdat.
!        Set maxTs to the time step to compute: 1=first time step, 2=otherwise
         maxTs = tmax
         t0 = tcur

!        Allocate the sysA structure
         NULLIFY( sysA )
         ALLOCATE( sysA(1) )                                              !Change to sysA(2)?
!        Allocate maxSys
         ALLOCATE( maxSys(1) )                                            !Change to maxSys(2)?
      END IF

!     Big loop over all time levels
!/MPI      IF (rank.EQ.0) THEN
         WRITE(6,*) 'Performing spatial tracking...'            
!/MPI      END IF
!/MPI/!      WRITE(20,*) 'rank,t0,maxTs,nproc =',rank,t0,maxTs,nproc
!/MPI      DO tsA = (t0+rank),maxTs,MIN(nproc,maxTS)
!/MPI/!         WRITE(20,*) 'Computing: Rank, tsA =',rank,tsA
!/SHRD      DO tsA = t0,maxTs
          WRITE(20,*) 'Call spiralTrackV3, tsA=',tsA,'...'
          CALL spiralTrackV3 ( wsdat(tsA), dirKnob, perKnob, wetPts, &
                               hsKnob, seedLat, seedLon, &
                               maxSys(tsA), sysA(tsA)%sys )
          WRITE(20,*) '*** SIZE(sysA(1:tsA)%sys) at end of time step', &
                       tsA,':'
          WRITE(20,*) SIZE(sysA(tsA)%sys)
      END DO

!/MPI      CALL MPI_Barrier(MPI_COMM_WORLD,IERR)
!/MPI
!/MPI/!!     Define communicator for array of integers in structure "system"
!/MPI/!      DOMSIZE = maxI*maxJ
!/MPI/!      WRITE(20,*) 'Rank',rank,'DOMSIZE =',DOMSIZE
!/MPI/!      CALL MPI_TYPE_CONTIGUOUS(DOMSIZE,MPI_INTEGER,MPI_INT_DOMARR,IERR)
!/MPI/!      CALL MPI_TYPE_COMMIT(MPI_INT_DOMARR,IERR)
!/MPI/!      CALL MPI_TYPE_EXTENT(MPI_INT_DOMARR,EXTENT,IERR)
!/MPI/!      WRITE(20,*) 'Rank',rank,'has set up communicator MPI_INT_DOMARR, &
!/MPI/!                  size =',EXTENT
!/MPI
!/MPI/!!     Define communicator for array of reals in structure "system"
!/MPI/!      CALL MPI_TYPE_CONTIGUOUS(DOMSIZE,MPI_REAL,MPI_REAL_DOMARR,IERR)
!/MPI/!      CALL MPI_TYPE_COMMIT(MPI_REAL_DOMARR,IERR)
!/MPI/!      CALL MPI_TYPE_EXTENT(MPI_REAL_DOMARR,EXTENT,IERR)
!/MPI/!      WRITE(20,*) 'Rank',rank,'has set up communicator MPI_REAL_DOMARR, &
!/MPI/!                  size =',EXTENT
!/MPI
!/MPI/!     Communicate results back to rank 0
!/MPI      DO tsA = t0,maxTs
!/MPI         irank = MOD((tsA-t0),MIN(nproc,maxTS))
!/MPI/!         WRITE(20,*) 'Rank,irank=',rank,irank
!/MPI         IF (irank.NE.0) THEN
!/MPI/!            WRITE(20,*) 'Communicating for Rank,irank=',rank,irank
!/MPI
!/MPI/!           Send maxSys(tsA) at each time level to rank 0
!/MPI            tag1 = tsA
!/MPI            IF (rank.EQ.irank) THEN
!/MPI/!              Send results from current rank to rank 0 (blocking)
!/MPI/!               WRITE(20,*) '>> Sending: rank,tsA,tag1=',rank,tsA,tag1
!/MPI               CALL MPI_SEND(maxSys(tsA),1,MPI_INTEGER,0,tag1, &
!/MPI                             MPI_COMM_WORLD,IERR)
!/MPI/!               WRITE(20,*) 'Rank, IERR=',rank,IERR
!/MPI            END IF
!/MPI            IF (rank.EQ.0) THEN
!/MPI/!               WRITE(20,*) '<< Receiving: rank,tsA,tag1=',rank,tsA,tag1
!/MPI               CALL MPI_RECV(maxSys(tsA),1,MPI_INTEGER, &
!/MPI                             irank,tag1,MPI_COMM_WORLD,MPI_STATUS,IERR)
!/MPI/!              Allocate structure at this time level
!/MPI               ALLOCATE( sysA(tsA)%sys(maxSys(tsA)) )
!/MPI               DO ic = 1,maxSys(tsA)
!/MPI                  NULLIFY( sysA(tsA)%sys(ic)%i )
!/MPI                  NULLIFY( sysA(tsA)%sys(ic)%j )
!/MPI                  NULLIFY( sysA(tsA)%sys(ic)%lon )
!/MPI                  NULLIFY( sysA(tsA)%sys(ic)%lat )
!/MPI                  NULLIFY( sysA(tsA)%sys(ic)%hs )
!/MPI                  NULLIFY( sysA(tsA)%sys(ic)%tp )
!/MPI                  NULLIFY( sysA(tsA)%sys(ic)%dir)
!/MPI                  NULLIFY( sysA(tsA)%sys(ic)%dspr)
!/MPI                  ALLOCATE( sysA(tsA)%sys(ic)%i(maxI*maxJ) )
!/MPI                  ALLOCATE( sysA(tsA)%sys(ic)%j(maxI*maxJ) )
!/MPI                  ALLOCATE( sysA(tsA)%sys(ic)%lon(maxI*maxJ) )
!/MPI                  ALLOCATE( sysA(tsA)%sys(ic)%lat(maxI*maxJ) )
!/MPI                  ALLOCATE( sysA(tsA)%sys(ic)%hs(maxI*maxJ) )
!/MPI                  ALLOCATE( sysA(tsA)%sys(ic)%tp(maxI*maxJ) )
!/MPI                  ALLOCATE( sysA(tsA)%sys(ic)%dir(maxI*maxJ) )
!/MPI                  ALLOCATE( sysA(tsA)%sys(ic)%dspr(maxI*maxJ) )
!/MPI                  sysA(tsA)%sys(ic)%i(:) = 9999  
!/MPI                  sysA(tsA)%sys(ic)%j(:) = 9999
!/MPI                  sysA(tsA)%sys(ic)%lon(:) = 9999.
!/MPI                  sysA(tsA)%sys(ic)%lat(:) = 9999. 
!/MPI                  sysA(tsA)%sys(ic)%hs(:) = 9999.
!/MPI                  sysA(tsA)%sys(ic)%tp(:) = 9999. 
!/MPI                  sysA(tsA)%sys(ic)%dir(:) = 9999.
!/MPI                  sysA(tsA)%sys(ic)%dspr(:) = 9999.
!/MPI                  sysA(tsA)%sys(ic)%hsMean = 9999.
!/MPI                  sysA(tsA)%sys(ic)%tpMean = 9999.
!/MPI                  sysA(tsA)%sys(ic)%dirMean = 9999.
!/MPI                  sysA(tsA)%sys(ic)%sysInd = 9999
!/MPI                  sysA(tsA)%sys(ic)%nPoints = 9999
!/MPI                  sysA(tsA)%sys(ic)%grp = 9999
!/MPI               END DO
!/MPI            END IF
!/MPI
!/MPI/!           Send data fields at each (tsA,ic) combination
!/MPI            IF ((rank.EQ.0).OR.(rank.EQ.irank)) THEN
!/MPI            DO ic = 1, maxSys(tsA)
!/MPI/!              Construct a unique tag for each message
!/MPI               tag2 = tsA*10000 + ic*100
!/MPI               DOMSIZE = maxI*maxJ
!/MPI
!/MPI               IF (rank.EQ.irank) THEN
!/MPI/!                 WRITE(20,*) '>> Sending: rank,irank,tag2=', &
!/MPI/!                             rank,irank,(tag2+1)
!/MPI                 CALL MPI_SEND(sysA(tsA)%sys(ic)%i(:),DOMSIZE, &
!/MPI                  MPI_INTEGER,0,(tag2+1),MPI_COMM_WORLD,REQ(1),IERR)
!/MPI               END IF
!/MPI               IF (rank.EQ.0) THEN
!/MPI/!                 WRITE(20,*) '<< Receiving: rank,irank,tag2=', &
!/MPI/!                             rank,irank,(tag2+1)
!/MPI                 CALL MPI_RECV(sysA(tsA)%sys(ic)%i(:),DOMSIZE, &
!/MPI                    MPI_INTEGER,irank,(tag2+1), &
!/MPI                    MPI_COMM_WORLD,MPI_STATUS,REQ(2),IERR)
!/MPI               END IF
!/MPI/!               CALL MPI_WAITALL(2,REQ,ISTAT,IERR)
!/MPI
!/MPI               IF (rank.EQ.irank) THEN
!/MPI/!                 WRITE(20,*) '>> Sending: rank,irank,tag2=', &
!/MPI/!                             rank,irank,(tag2+2)
!/MPI                 CALL MPI_SEND(sysA(tsA)%sys(ic)%j(:),DOMSIZE, &
!/MPI                  MPI_INTEGER,0,(tag2+2),MPI_COMM_WORLD,REQ(1),IERR)
!/MPI               END IF
!/MPI               IF (rank.EQ.0) THEN
!/MPI/!                 WRITE(20,*) '<< Receiving: rank,irank,tag2=', &
!/MPI/!                             rank,irank,(tag2+2)
!/MPI                 CALL MPI_RECV(sysA(tsA)%sys(ic)%j(:),DOMSIZE, &
!/MPI                    MPI_INTEGER,irank,(tag2+2), &
!/MPI                    MPI_COMM_WORLD,MPI_STATUS,REQ(2),IERR)
!/MPI               END IF
!/MPI/!               CALL MPI_WAITALL(2,REQ,ISTAT,IERR)
!/MPI
!/MPI               IF (rank.EQ.irank) THEN
!/MPI/!                 WRITE(20,*) '>> Sending: rank,tag2=',rank,(tag2+3)
!/MPI                 CALL MPI_SEND(sysA(tsA)%sys(ic)%lon(:),DOMSIZE, &
!/MPI                  MPI_REAL,0,(tag2+3),MPI_COMM_WORLD,REQ(1),IERR)
!/MPI               END IF
!/MPI               IF (rank.EQ.0) THEN
!/MPI/!                 WRITE(20,*) '<< Receiving: rank,tag2=',rank,(tag2+3)
!/MPI                 CALL MPI_RECV(sysA(tsA)%sys(ic)%lon(:),DOMSIZE, &
!/MPI                    MPI_REAL,irank,(tag2+3), &
!/MPI                    MPI_COMM_WORLD,MPI_STATUS,REQ(2),IERR)
!/MPI               END IF
!/MPI/!               CALL MPI_WAITALL(2,REQ,ISTAT,IERR)
!/MPI
!/MPI               IF (rank.EQ.irank) THEN
!/MPI/!                 WRITE(20,*) '>> Sending: rank,tag2=',rank,(tag2+4)
!/MPI                 CALL MPI_SEND(sysA(tsA)%sys(ic)%lat(:),DOMSIZE, &
!/MPI                  MPI_REAL,0,(tag2+4),MPI_COMM_WORLD,REQ(1),IERR)
!/MPI               END IF
!/MPI               IF (rank.EQ.0) THEN
!/MPI/!                 WRITE(20,*) '<< Receiving: rank,tag2=',rank,(tag2+4)
!/MPI                 CALL MPI_RECV(sysA(tsA)%sys(ic)%lat(:),DOMSIZE, &
!/MPI                    MPI_REAL,irank,(tag2+4), &
!/MPI                    MPI_COMM_WORLD,MPI_STATUS,REQ(2),IERR)
!/MPI               END IF
!/MPI/!               CALL MPI_WAITALL(2,REQ,ISTAT,IERR)
!/MPI
!/MPI               IF (rank.EQ.irank) THEN
!/MPI/!                 WRITE(20,*) '>> Sending: rank,tag2=',rank,(tag2+5)
!/MPI                 CALL MPI_SEND(sysA(tsA)%sys(ic)%hs(:),DOMSIZE, &
!/MPI                  MPI_REAL,0,(tag2+5),MPI_COMM_WORLD,REQ(1),IERR)
!/MPI               END IF
!/MPI               IF (rank.EQ.0) THEN
!/MPI/!                 WRITE(20,*) '<< Receiving: rank,tag2=',rank,(tag2+5)
!/MPI                 CALL MPI_RECV(sysA(tsA)%sys(ic)%hs(:),DOMSIZE, &
!/MPI                    MPI_REAL,irank,(tag2+5), &
!/MPI                    MPI_COMM_WORLD,MPI_STATUS,REQ(2),IERR)
!/MPI               END IF
!/MPI/!               CALL MPI_WAITALL(2,REQ,ISTAT,IERR)
!/MPI
!/MPI               IF (rank.EQ.irank) THEN
!/MPI/!                 WRITE(20,*) '>> Sending: rank,tag2=',rank,(tag2+6)
!/MPI                 CALL MPI_SEND(sysA(tsA)%sys(ic)%tp(:),DOMSIZE, &
!/MPI                  MPI_REAL,0,(tag2+6),MPI_COMM_WORLD,REQ(1),IERR)
!/MPI               END IF
!/MPI               IF (rank.EQ.0) THEN
!/MPI/!                 WRITE(20,*) '<< Receiving: rank,tag2=',rank,(tag2+6)
!/MPI                 CALL MPI_RECV(sysA(tsA)%sys(ic)%tp(:),DOMSIZE, &
!/MPI                    MPI_REAL,irank,(tag2+6), &
!/MPI                    MPI_COMM_WORLD,MPI_STATUS,REQ(2),IERR)
!/MPI               END IF
!/MPI/!               CALL MPI_WAITALL(2,REQ,ISTAT,IERR)
!/MPI
!/MPI               IF (rank.EQ.irank) THEN
!/MPI/!                 WRITE(20,*) '>> Sending: rank,tag2=',rank,(tag2+7)
!/MPI                 CALL MPI_SEND(sysA(tsA)%sys(ic)%dir(:),DOMSIZE, &
!/MPI                  MPI_REAL,0,(tag2+7),MPI_COMM_WORLD,REQ(1),IERR)
!/MPI               END IF
!/MPI               IF (rank.EQ.0) THEN
!/MPI/!                 WRITE(20,*) '<< Receiving: rank,tag2=',rank,(tag2+7)
!/MPI                 CALL MPI_RECV(sysA(tsA)%sys(ic)%dir(:),DOMSIZE, &
!/MPI                    MPI_REAL,irank,(tag2+7), &
!/MPI                    MPI_COMM_WORLD,MPI_STATUS,REQ(2),IERR)
!/MPI               END IF
!/MPI/!               CALL MPI_WAITALL(2,REQ,ISTAT,IERR)
!/MPI
!/MPI               IF (rank.EQ.irank) THEN
!/MPI/!                 WRITE(20,*) '>> Sending: rank,tag2=',rank,(tag2+8)
!/MPI                 CALL MPI_SEND(sysA(tsA)%sys(ic)%dspr(:),DOMSIZE, &
!/MPI                  MPI_REAL,0,(tag2+8),MPI_COMM_WORLD,REQ(1),IERR)
!/MPI               END IF
!/MPI               IF (rank.EQ.0) THEN
!/MPI/!                 WRITE(20,*) '<< Receiving: rank,tag2=',rank,(tag2+8)
!/MPI                 CALL MPI_RECV(sysA(tsA)%sys(ic)%dspr(:),DOMSIZE, &
!/MPI                    MPI_REAL,irank,(tag2+8), &
!/MPI                    MPI_COMM_WORLD,MPI_STATUS,REQ(2),IERR)
!/MPI               END IF
!/MPI/!               CALL MPI_WAITALL(2,REQ,ISTAT,IERR)
!/MPI
!/MPI               IF (rank.EQ.irank) THEN
!/MPI/!                 WRITE(20,*) '>> Sending: rank,irank,tag2=', &
!/MPI/!                             rank,irank,(tag2+9)
!/MPI                  CALL MPI_SEND(sysA(tsA)%sys(ic)%hsMean,1,MPI_REAL, &
!/MPI                     0,(tag2+9),MPI_COMM_WORLD,IERR)
!/MPI               END IF
!/MPI               IF (rank.EQ.0) THEN
!/MPI/!                 WRITE(20,*) '<< Receiving: rank,irank,tag2=', &
!/MPI/!                             rank,irank,(tag2+9)
!/MPI                 CALL MPI_RECV(sysA(tsA)%sys(ic)%hsMean,1,MPI_REAL, &
!/MPI                    irank,(tag2+9),MPI_COMM_WORLD,MPI_STATUS,IERR)
!/MPI               END IF
!/MPI
!/MPI               IF (rank.EQ.irank) THEN
!/MPI/!                 WRITE(20,*) '>> Sending: rank,irank,tag2=', &
!/MPI/!                             rank,irank,(tag2+10)
!/MPI                  CALL MPI_SEND(sysA(tsA)%sys(ic)%tpMean,1,MPI_REAL, &
!/MPI                     0,(tag2+10),MPI_COMM_WORLD,IERR)
!/MPI               END IF
!/MPI               IF (rank.EQ.0) THEN
!/MPI/!                 WRITE(20,*) '<< Receiving: rank,irank,tag2=', &
!/MPI/!                             rank,irank,(tag2+10)
!/MPI                 CALL MPI_RECV(sysA(tsA)%sys(ic)%tpMean,1,MPI_REAL, &
!/MPI                    irank,(tag2+10),MPI_COMM_WORLD,MPI_STATUS,IERR)
!/MPI               END IF
!/MPI
!/MPI               IF (rank.EQ.irank) THEN
!/MPI/!                 WRITE(20,*) '>> Sending: rank,irank,tag2=', &
!/MPI/!                             rank,irank,(tag2+11)
!/MPI                  CALL MPI_SEND(sysA(tsA)%sys(ic)%dirMean,1,MPI_REAL, &
!/MPI                     0,(tag2+11),MPI_COMM_WORLD,IERR)
!/MPI               END IF
!/MPI               IF (rank.EQ.0) THEN
!/MPI/!                 WRITE(20,*) '<< Receiving: rank,irank,tag2=', &
!/MPI/!                             rank,irank,(tag2+11)
!/MPI                 CALL MPI_RECV(sysA(tsA)%sys(ic)%dirMean,1,MPI_REAL, &
!/MPI                    irank,(tag2+11),MPI_COMM_WORLD,MPI_STATUS,IERR)
!/MPI               END IF
!/MPI
!/MPI               IF (rank.EQ.irank) THEN
!/MPI/!                 WRITE(20,*) '>> Sending: rank,irank,tag2=', &
!/MPI/!                             rank,irank,(tag2+12)
!/MPI                  CALL MPI_SEND(sysA(tsA)%sys(ic)%sysInd,1,MPI_INTEGER,&
!/MPI                     0,(tag2+12),MPI_COMM_WORLD,IERR)
!/MPI               END IF
!/MPI               IF (rank.EQ.0) THEN
!/MPI/!                 WRITE(20,*) '<< Receiving: rank,irank,tag2=', &
!/MPI/!                             rank,irank,(tag2+12)
!/MPI                 CALL MPI_RECV(sysA(tsA)%sys(ic)%sysInd,1,MPI_INTEGER,&
!/MPI                    irank,(tag2+12),MPI_COMM_WORLD,MPI_STATUS,IERR)
!/MPI               END IF
!/MPI
!/MPI               IF (rank.EQ.irank) THEN
!/MPI/!                 WRITE(20,*) '>> Sending: rank,irank,tag2=', &
!/MPI/!                             rank,irank,(tag2+13)
!/MPI                  CALL MPI_SEND(sysA(tsA)%sys(ic)%nPoints,1,MPI_INTEGER,&
!/MPI                     0,(tag2+13),MPI_COMM_WORLD,IERR)
!/MPI               END IF
!/MPI               IF (rank.EQ.0) THEN
!/MPI/!                 WRITE(20,*) '<< Receiving: rank,irank,tag2=', &
!/MPI/!                             rank,irank,(tag2+13)
!/MPI                 CALL MPI_RECV(sysA(tsA)%sys(ic)%nPoints,1,MPI_INTEGER,&
!/MPI                    irank,(tag2+13),MPI_COMM_WORLD,MPI_STATUS,IERR)
!/MPI               END IF
!/MPI
!/MPI               IF (rank.EQ.irank) THEN
!/MPI/!                 WRITE(20,*) '>> Sending: rank,irank,tag2=', &
!/MPI/!                             rank,irank,(tag2+14)
!/MPI                  CALL MPI_SEND(sysA(tsA)%sys(ic)%grp,1,MPI_INTEGER,&
!/MPI                     0,(tag2+14),MPI_COMM_WORLD,IERR)
!/MPI               END IF
!/MPI               IF (rank.EQ.0) THEN
!/MPI/!                 WRITE(20,*) '<< Receiving: rank,irank,tag2=', &
!/MPI/!                             rank,irank,(tag2+14)
!/MPI                 CALL MPI_RECV(sysA(tsA)%sys(ic)%grp,1,MPI_INTEGER,&
!/MPI                    irank,(tag2+14),MPI_COMM_WORLD,MPI_STATUS,IERR)
!/MPI               END IF
!/MPI            END DO
!/MPI            END IF
!/MPI         END IF
!/MPI      END DO
!/MPI
!/MPI      CALL MPI_Barrier(MPI_COMM_WORLD,IERR)
!/MPI
!/MPI/!      CALL MPI_TYPE_FREE(MPI_INT_DOMARR,IERR)
!/MPI/!      CALL MPI_TYPE_FREE(MPI_REAL_DOMARR,IERR)
!/MPI

!/MPI      IF (rank.EQ.0) THEN
      WRITE(6,*) 'Performing temporal tracking...'
      WRITE(20,*) 'Calling timeTrackingV2...'
      lonext = wsdat(1)%lon(maxI,1)-wsdat(1)%lon(1,1)
      latext = wsdat(1)%lat(1,maxJ)-wsdat(1)%lat(1,1)
      CALL timeTrackingV2 (sysA, maxSys, tpTimeKnob, dirTimeKnob, 1, &
                           maxGroup, dt, lonext, latext, maxI, maxJ)
!/MPI      END IF

      RETURN
      END SUBROUTINE waveTracking_NWS_V2
!/ End of waveTracking_NWS_V2 ---------------------------------------- /
!/

!/ ------------------------------------------------------------------- /
      SUBROUTINE spiralTrackV3 (wsdat   ,dirKnob ,perKnob ,wetPts  , &
                                hsKnob  ,seedLat ,seedLon  , &
                                maxSys  ,sys   )
!/
!/                  +-----------------------------------+
!/                  | WAVEWATCH III           NOAA/NCEP |
!/                  |     A. J. van der Westhuysen      |
!/                  |            Jeff Hanson            |
!/                  |        Eve-Marie Devaliere        |
!/                  |                        FORTRAN 95 |
!/                  | Last update :          4-Jan-2013 |
!/                  +-----------------------------------+
!/
!/    03-Feb-2012 : Origination, based on Matlab code   ( version 4.05 )
!/                  by Jeff Hanson & Eve-Marie Devaliere
!/    04-Jan-2013 : Inclusion in trunk                  ( version 4.08 )
!/
!/    Copyright 2009-2013 National Weather Service (NWS),
!/       National Oceanic and Atmospheric Administration.  All rights
!/       reserved.  WAVEWATCH III is a trademark of the NWS. 
!/       No unauthorized use without permission.
!/
      IMPLICIT NONE
!
!  1. Purpose :
!
!     Performs the spatial spiral tracking for a given time step
!
!  2. Method
!
!     Index convention on grid:
!
!      j
!      ^                      
!      |+(1,maxJ)          +(maxI,maxJ)
!      |
!      |
!      |
!      |
!      |
!      |
!      |(1,1)              +(maxI,1)
!      +----------------------> i
!
!  3. Parameters :
!
!     Parameter list
!     ----------------------------------------------------------------
!     dirKnob     Real     input  Parameter in direction for combining fields in space
!     perKnob     Real     input  Parameter in period for combining fields in space
!     wetPts      Real     input  Percentage of wet points for purging fields (fraction)
!     hsKnob      Real     input  Parameter in wave height for purging fields
!     seedLat     Real     input  Start Lat for tracking spiral (if =0 centre of field is used)
!     seedLon     Real     input  Start Lon for tracking spiral (if =0 centre of field is used) 
!     wsdat       Real arr output Input 2d (gridded) data structure to be spiral tracked
!     maxSys      Int      output Maximum number of partition systems      
!     sys     Type(system) output Final set of tracked systems, for one time level  
!                                      
      TYPE(dat2d)  :: wsdat
      REAL         :: dirKnob,perKnob,wetPts,hsKnob,seedLat,seedLon
      INTEGER      :: maxSys
      TYPE(system), POINTER :: sys(:)

      INTENT (IN) wetPts,dirKnob,perKnob,hsKnob,seedLat,seedLon
      INTENT (IN OUT) wsdat
!      INTENT (OUT) maxSys,sys   
!
!     Local variables
!     ----------------------------------------------------------------
!     ngbrExt    Int    How far do we want the neigbor to be condsidered
!     combine    Int    Toggle (1=combine wave systems; 0=do not combine)
!     maxI,MaxJ  Int    Dimensions of the 2d (gridded) data wsdat
!     deltaLat   Real   Delta in kilometers between 2 pts (in latitude)
!
      LOGICAL   :: first
      CHARACTER :: way *1
      INTEGER   :: ngbrExt, combine, maxI, maxJ, i, j, oldJ
      INTEGER   :: horizStepCount, vertStepCount, checkCount, sc, & 
                   maxPts, landPts, horizBorder, vertBorder, m, k, &
                   stepCount
      REAL      :: deltaLat, minLat, maxLat, minLon, maxLon
!
!  4. Subroutines used :
!
!      Name      Type  Module   Description
!     ----------------------------------------------------------------
!      findWay
!      findNext
!      findSys
!      combineWaveSystems
!
!  5. Subroutines calling
!
!     waveTracking_NWS_V2
!
!  6. Error messages :
!
!  7. Remarks :
!
!  8. Structure :
!
!     -
!
!  9. Switches :
!
!     None defined yet.
!
! 10. Source code :
!
!/ ------------------------------------------------------------------- /

! Routine starts by identifying the starting point. Choose the 'center' of the domain
!     Set the search distance for neighbors:
!     1: 1 row and column out, i.e. the 8 neighbors around the current point
!     2: 2 rows and columns out... etc.
      ngbrExt=1
      combine=1
      WRITE(20,*) 'In spiralTrackV3: combine = ',combine

      maxI = wsdat%maxi
      maxJ = wsdat%maxj
      IF ( (seedLat.EQ.0).OR.(seedLon.EQ.0) ) THEN
         i=NINT(REAL(maxI)/2.)
         j=NINT(REAL(maxJ)/2.)
         WRITE(20,*) 'In spiralTrackV3, i=NINT(maxI/2.) =',i
         WRITE(20,*) 'In spiralTrackV3, j=NINT(maxJ/2.) =',j
      ELSE
         i=1
         j=1
         DO WHILE ( (wsdat%lat(1,j).LT.seedLat).AND.(j.LT.wsdat%maxj) )     !40.PAR !Improve with SWAN's indice identification
            j=j+1
         END DO
         DO WHILE ( (wsdat%lon(i,1).LT.seedLon).AND.(i.LT.wsdat%maxi) )
            i=i+1
         END DO
      END IF
!     In case center point is land point...
      IF (wsdat%par(i,j)%checked.EQ.-1) THEN
          oldJ=j
          DO WHILE (wsdat%par(i,j)%checked.EQ.-1)
              j=j+1
              IF (j.EQ.maxJ) THEN
                  j=oldJ
                  i=i+1
                  oldJ=oldJ+1
              END IF
          END DO
      END IF
!     Compute distance in km between 2 grid points (at equator)
      deltaLat=(wsdat%lat(i,j)-wsdat%lat(i,j-1))*111.18

!     Starts the spiral
!     Intitiate variables
      horizStepCount=0
      vertStepCount=0
      way='R'
      first=.TRUE.
      checkCount=1
      maxSys=0
      landPts=0

      minLat=MINVAL(wsdat%lat)
      maxLat=MAXVAL(wsdat%lat)
      minLon=MINVAL(wsdat%lon)
      maxLon=MAXVAL(wsdat%lon)

      horizBorder=0
      vertBorder=0
      DO WHILE (checkCount.LE.(maxI*maxJ-3) )
!        From the direction (way) we were going before, find which direction we
!        are going now and how many 'step' we need to take            
         CALL findWay(way, horizStepCount, vertStepCount, &
                      vertBorder, horizBorder, stepCount)
         IF (first) THEN
           m=0
           DO k=1,LENGTH(wsdat%par(i,j)%hs, &
                         SIZE(wsdat%par(i,j)%hs),9999.)
               IF ( (wsdat%par(i,j)%hs(k).EQ.0.).AND. &
                    (wsdat%par(i,j)%tp(k).EQ.0.) ) THEN
                  wsdat%par(i,j)%sys(k)=-1
               ELSE
                  m=m+1
                  wsdat%par(i,j)%sys(k)=m
               END IF
           END DO

           wsdat%par(i,j)%checked=1
           checkCount=checkCount+1
           first=.FALSE.
         END IF
         DO sc = 1, stepCount
             CALL findNext (i,j,maxI,maxJ,way,vertBorder,horizBorder)
             IF ( wsdat%par(i,j)%checked.EQ.-1 ) THEN
!            Land point is one of our grid points, so we need to update counter
                 checkCount=checkCount+1
                 landPts=landPts+1
!                So that we don't count the land points twice....
                 wsdat%par(i,j)%checked=-2
             ELSE IF ( wsdat%par(i,j)%checked.EQ.0 ) THEN
!            Hasn't been checked yet and is not land point
                 checkCount=checkCount+1
                 CALL findSys(i, j, wsdat, maxSys, ngbrExt, maxI, maxJ, &
                              perKnob, dirKnob, hsKnob)
             END IF
         END DO
      END DO
!     wetPts% of wet points
      maxPts=NINT(wetPts*(maxI*maxJ-1))

      WRITE(20,*) 'Call combineWaveSystems...'
      CALL combineWaveSystems(wsdat,maxSys,maxPts,maxI,maxJ, &
                              perKnob,dirKnob,hsKnob,combine,sys)

      RETURN
      END SUBROUTINE spiralTrackV3
!/ End of spiralTrackV3 ---------------------------------------------- /
!/

!/ ------------------------------------------------------------------- /
      SUBROUTINE timeTrackingV2 (sysA       ,maxSys     ,tpTimeKnob  , &
                                 dirTimeKnob,ts0        ,maxGroup    , &
                                 dt         ,lonext     ,latext      , &
                                 maxI       ,maxJ                    )
!/
!/                  +-----------------------------------+
!/                  | WAVEWATCH III           NOAA/NCEP |
!/                  |     A. J. van der Westhuysen      |
!/                  |            Jeff Hanson            |
!/                  |        Eve-Marie Devaliere        |
!/                  |                        FORTRAN 95 |
!/                  | Last update :          4-Jan-2013 |
!/                  +-----------------------------------+
!/
!/    03-Feb-2012 : Origination, based on Matlab code   ( version 4.05 )
!/                  by Jeff Hanson & Eve-Marie Devaliere
!/    04-Jan-2013 : Inclusion in trunk                  ( version 4.08 )
!/
!/    Copyright 2009-2013 National Weather Service (NWS),
!/       National Oceanic and Atmospheric Administration.  All rights
!/       reserved.  WAVEWATCH III is a trademark of the NWS. 
!/       No unauthorized use without permission.
!/
      IMPLICIT NONE
!
!  1. Purpose :
!
!     Performs the time tracking of the systems identified within 
!     the subroutine spiralTrackV3.
!
!  2. Method
!
!     -
!
!  3. Parameters :
!
!     Parameter list
!     ----------------------------------------------------------------
!     Note: perKnob, dirKnob in Matlab version replaced by tpTimeKnob, dirTimeKnob!
!
!     sysA        TYPE(timsys) in/out Final set of spatially and temporally tracked systems
!     dirTimeKnob    Real      input  Parameter in direction for combining fields in time
!     tpTimeKnob     Real      input  Parameter in period for combining fields in time
!     ts0            Int       input  Time step to which default grp values are associated
!     maxSys         Int arr   input  Total number of systems per time level
!     maxGroup       Int       output Maximum number of wave systems ("groups") tracked in time
!     lonext         Real      input  Longitudinal extent of domain
!     latext         Real      input  Latitudinal extent of domain
!     maxI, maxJ     Int       input  Maximum indices of wave field
!
      TYPE(timsys), POINTER :: sysA(:)
      INTEGER, POINTER :: maxSys(:)
      REAL         :: dirTimeKnob, tpTimeKnob
      INTEGER      :: ts0, maxGroup
      REAL         :: dt
      REAL         :: lonext, latext
      INTEGER      :: maxI, maxJ

      INTENT (IN) tpTimeKnob, dirTimeKnob, ts0, maxI, maxJ
!      INTENT (IN OUT) sysA
      INTENT (OUT) maxGroup
!
!     Local variables
!     ----------------------------------------------------------------
!     ic        Int   Counter for wave systems
!     ts1       Int   Adjusted initial time step in case ts0 has only empty systems
!
      LOGICAL :: file_exists
      CHARACTER :: dummy*23
      TYPE(sysmemory) :: sysMem(50)                                             !!! 50 memory spaces should be enough Check!!!
      INTEGER :: leng, l, i, ii, j, k, kk, idir, numSys, &
                 counter, new, DIFSIZE, tpMinInd, dirMinInd, used, ok 
      REAL    :: Tb,  deltaPer, deltaDir, tpMinVal, dirMinVal, & 
                 dirForTpMin, tpForDirMin
      REAL, ALLOCATABLE :: sysOrdered(:), TEMP(:), dirs(:)
      REAL, POINTER :: DIFARR(:)
      INTEGER, ALLOCATABLE :: indSorted(:), alreadyUsed(:), allInd(:)
      INTEGER, ALLOCATABLE :: ind(:), ind2(:)
      INTEGER :: ts1
      REAL, ALLOCATABLE :: GOF(:,:), GOFMinVal(:), GOFMinInd(:), &
                           Tbsysmem(:), deltaDirsysmem(:), &
                           deltaPersysmem(:),m1sysmem(:),m2sysmem(:)
      REAL    :: m1, m2
      REAL    :: lonmean, latmean, dmndiag
      INTEGER :: npnts, npnts2
      REAL, ALLOCATABLE :: mnlonlist(:), mnlatlist(:), mndist(:)
      REAL, POINTER     :: dummy1(:),dummy2(:),dummy3(:)
      INTEGER, ALLOCATABLE :: olsize(:)
      REAL    :: TEMP1, TEMP2
      INTEGER :: iii, jj, ll, idup
!
!  4. Subroutines used :
!
!      Name      Type  Module   Description
!     ----------------------------------------------------------------
!      SORT
!      SETDIFF
!
!  5. Subroutines calling
!
!     waveTracking_NWS_V2
!
!
!  6. Error messages :
!
!  7. Remarks :
!
!  8. Structure :
!
!     -
!
!  9. Switches :
!
!     None defined yet.
!
! 10. Source code :
!
!/ ------------------------------------------------------------------- /

!     Associate default grp value to time step 1
      WRITE(20,*) 'TIME TRACKING'
      WRITE(20,*) 'Inside timeTrackingV2: SIZE(sysA(1)%sys) =', &
                    SIZE(sysA(1)%sys)
      WRITE(20,*) 'Inside timeTrackingV2: maxSys(1) =',maxSys(1)
      WRITE(20,*) 'ts0 = ',ts0

      ts1 = ts0

!     Skip initial time steps with empty systems (e.g. when starting from rest)
      DO i = ts1, SIZE(sysA)
         IF (SIZE(sysA(ts1)%sys).EQ.0) ts1 = ts1+1
!        No non-empty systems found
         IF (ts1.GT.SIZE(sysA)) THEN
            maxGroup = 0
            GOTO 2000
         END IF
      END DO
      WRITE(20,*) 'TS = ',ts1

      IF (SIZE(sysA(ts1)%sys).GT.0) THEN
!        Initialize system memory groups
         sysA(ts1)%sys(:)%grp = 9999
         sysMem(:)%grp = 9999
         sysMem(:)%nPoints = 0
         sysMem(:)%lonMean = 9999.
         sysMem(:)%latMean = 9999.
         sysMem(:)%tpMean = 9999.
         sysMem(:)%dirMean = 9999.
         sysMem(:)%updated = -9999
         sysMem(:)%length = 0
         DO iii = 1,50
            ALLOCATE(sysMem(iii)%indx(maxI*maxJ))
            sysMem(iii)%indx = 9999
         END DO

         INQUIRE(FILE="sys_restart.ww3", EXIST=file_exists)
         IF (file_exists) THEN
!           Use groups from wave tracking hotfile
            WRITE(20,*) '*** Using group memory hotfile'
            OPEN(unit=12,file='sys_restart.ww3',status='old')
            READ(12,'(A23,I10)') dummy,maxGroup
            WRITE(20,*) 'Reading ',maxGroup,' systems'
            DO k = 1,maxGroup
               READ(12,'(A23,I10)') dummy,sysMem(k)%grp
               READ(12,'(A23,I10)') dummy,sysMem(k)%nPoints
               READ(12,'(A23,F10.4)') dummy,sysMem(k)%lonMean
               READ(12,'(A23,F10.4)') dummy,sysMem(k)%latMean
               READ(12,'(A23,F10.3)') dummy,sysMem(k)%tpMean
               READ(12,'(A23,F10.3)') dummy,sysMem(k)%dirMean
               READ(12,'(A23,I10)') dummy,sysMem(k)%updated
               READ(12,'(A23,I10)') dummy,sysMem(k)%length
               DO j = maxJ,1,-1
                  READ(12,*) (sysMem(k)%indx((j-1)*maxI+i), i = 1,maxI)
               END DO
               !Reset update counter
               sysMem(k)%updated = 0
            END DO
            CLOSE(12)
            ts1 = ts1-1
         ELSE
         
!        Set up the group number array for the first time level to be tracked
         ALLOCATE( sysOrdered(maxSys(ts1)) )
         ALLOCATE( indSorted(maxSys(ts1)) )
         CALL SORT (REAL(sysA(ts1)%sys(1:maxSys(ts1))%nPoints), &
                    maxSys(ts1),sysOrdered,indSorted,'D')
         sysA(ts1)%sys(1:maxSys(ts1)) = sysA(ts1)%sys(indSorted)
         IF (ALLOCATED(sysOrdered)) DEALLOCATE(sysOrdered)
         IF (ALLOCATED(indSorted)) DEALLOCATE(indSorted)

!        Set the initial long-term system memory
         DO i = 1, maxSys(ts1)
            sysA(ts1)%sys(i)%grp = i
!           Set initial values of long-term system memory
            sysMem(i)%grp = i
            sysMem(i)%nPoints = sysA(ts1)%sys(i)%nPoints
            sysMem(i)%lonMean = &
               SUM(sysA(ts1)%sys(i)%lon(1:sysMem(i)%nPoints))/&
               sysMem(i)%nPoints
            sysMem(i)%latMean = &
               SUM(sysA(ts1)%sys(i)%lat(1:sysMem(i)%nPoints))/&
               sysMem(i)%nPoints
!070512----------- Weight averages with Hm0 ---------------------
            TEMP1 = 0.
            TEMP2 = 0.
            DO iii = 1,sysMem(i)%nPoints
               TEMP1 = TEMP1 + &
                  (sysA(ts1)%sys(i)%hs(iii)**2)*sysA(ts1)%sys(i)%lon(iii)
               TEMP2 = TEMP2 + &
                  (sysA(ts1)%sys(i)%hs(iii)**2)*sysA(ts1)%sys(i)%lat(iii)
            END DO
            sysMem(i)%lonMean = TEMP1/&
                  MAX(SUM(sysA(ts1)%sys(i)%hs(1:sysMem(i)%nPoints)**2),&
                  0.001)
            sysMem(i)%latMean = TEMP2/&
                  MAX(SUM(sysA(ts1)%sys(i)%hs(1:sysMem(i)%nPoints)**2),&
[...]
!      N -       number of values in array X to be sorted

      INTEGER N
      REAL TEMP2
      INTEGER JMAX, ITEMP
!
!  4. Subroutines used :
!
!      Name      Type  Module   Description
!     ----------------------------------------------------------------
!      -
!
!  5. Subroutines calling
!
!     printFinalSys
!     combineSys
!     timeTrackingV2
!
!  6. Error messages :
!
!  7. Remarks :
!
!  8. Structure :
!
!     -
!
!  9. Switches :
!
!     None defined yet.
!
! 10. Source code :
!
!/ ------------------------------------------------------------------- /
 
!     Sort OUTARRAY in as/decending order

      IF (INSIZE.EQ.0) THEN
         WRITE(20,*) '*** In Subr. SORT: Input array has length=0 !!!'
         GOTO 300
      END IF

      OUTARRAY = INARRAY
      N = INSIZE
      JMAX=N-1
      DO I = 1, N
         IY(I) = I
      END DO

      IF (DIRECTION .EQ. 'A') THEN
         DO 200 I=1,N-1
!            TEMP2=1.E38
            DO 100 J=1,JMAX
               IF(OUTARRAY(J).LE.OUTARRAY(J+1)) GO TO 100
                 TEMP2=OUTARRAY(J)
                 OUTARRAY(J)=OUTARRAY(J+1)
                 OUTARRAY(J+1)=TEMP2
                 ITEMP=IY(J)
                 IY(J)=IY(J+1)
                 IY(J+1)=ITEMP
  100       CONTINUE
            JMAX=JMAX-1
  200    CONTINUE
      ELSE IF (DIRECTION .EQ. 'D') THEN
         DO 201 I=1,N-1
!            TEMP2=1.E38
            DO 101 J=1,JMAX
               IF(OUTARRAY(J).GE.OUTARRAY(J+1)) GO TO 101
                 TEMP2=OUTARRAY(J)
                 OUTARRAY(J)=OUTARRAY(J+1)
                 OUTARRAY(J+1)=TEMP2
                 ITEMP=IY(J)
                 IY(J)=IY(J+1)
                 IY(J+1)=ITEMP
  101       CONTINUE
            JMAX=JMAX-1
  201    CONTINUE
      END IF

  300 RETURN
      END SUBROUTINE SORT
!/ End of SORT ------------------------------------------------------- /
!/

!/ ------------------------------------------------------------------- / 
      SUBROUTINE SETDIFF (INARRAY1,   INSIZE1,  INARRAY2,   INSIZE2, &
                          OUTARRAY,   OUTSIZE)
!/
!/                  +-----------------------------------+
!/                  | WAVEWATCH III           NOAA/NCEP |
!/                  |     A. J. van der Westhuysen      |
!/                  |            Jeff Hanson            |
!/                  |        Eve-Marie Devaliere        |
!/                  |                        FORTRAN 95 |
!/                  | Last update :          4-Jan-2013 |
!/                  +-----------------------------------+
!/
!/    03-Feb-2012 : Origination, based on Matlab code   ( version 4.05 )
!/                  by Jeff Hanson & Eve-Marie Devaliere
!/    04-Jan-2013 : Inclusion in trunk                  ( version 4.08 )
!/
!/    Copyright 2009-2013 National Weather Service (NWS),
!/       National Oceanic and Atmospheric Administration.  All rights
!/       reserved.  WAVEWATCH III is a trademark of the NWS. 
!/       No unauthorized use without permission.
!/
      IMPLICIT NONE
!
!  1. Purpose :
!
!     (i)  Returns the elements in INARRAY1 that are not in INARRAY2.
!     (ii) Sort the resulting array in ascending order.
!
!  2. Method
!
!  3. Parameters :
!
!     Parameter list
!     ----------------------------------------------------------------
!     INARRAY1  REAL    ARR  input    Input array
!     INSIZE1   INTEGER      input    Size of input array
!     INARRAY2  REAL    ARR  input    Input array
!     INSIZE2   INTEGER      input    Size of input array
!     OUTARRAY  REAL    ARR  output   Output array
!     OUTSIZE   INTEGER      output   Size of output array (number of unique elements)

      INTEGER           :: INSIZE1, INSIZE2, OUTSIZE, I, J
      REAL              :: INARRAY1(INSIZE1), INARRAY2(INSIZE2)
      REAL              :: TEMP(INSIZE1)
      REAL, POINTER :: OUTARRAY(:)
      LOGICAL           :: FOUND

      INTENT (IN)  INARRAY1, INSIZE1, INARRAY2, INSIZE2
!      INTENT (OUT) OUTARRAY, OUTSIZE
      INTENT (OUT) OUTSIZE
!
!     Local variables
!     ----------------------------------------------------------------
!     INARRAY1, INARRAY2 - arrays to find the difference between 
!     IY - array to be carried with X (all swaps of X elements are        ??? EDIT!
!          matched in IY .  After the sort IY(J) contains the original
!          postition of the value X(J) in the unsorted X array.
!     N -  number of values in array X to be sorted

      INTEGER N
      INTEGER IY(INSIZE1)
      REAL TEMP2
      INTEGER JMAX, ITEMP
!
!  4. Subroutines used :
!
!      Name      Type  Module   Description
!     ----------------------------------------------------------------
!      -
!
!  5. Subroutines calling
!
!     printFinalSys
!     combineSys
!     timeTrackingV2
!
!  6. Error messages :
!
!  7. Remarks :
!
!  8. Structure :
!
!     -
!
!  9. Switches :
!
!     None defined yet.
!
! 10. Source code :
!
!/ ------------------------------------------------------------------- /
 
!     NOTE: This routine can be improved further by removing "IF ( FOUND ) CYCLE"
!     Initialize TEMP array with dummy values

      IF (INSIZE1.EQ.0) THEN
         WRITE(20,*) '*** In Subr. SETDIFF:Input array has length=0!!!'
         ALLOCATE(OUTARRAY(0))
         OUTSIZE = 0
         GOTO 300
      END IF

      TEMP(:) = 9999.
      OUTSIZE = 0
      DO I=1,SIZE(INARRAY1)
         DO J=1,SIZE(INARRAY2)
            IF (INARRAY2(J).EQ.INARRAY1(I)) THEN
               ! Found a match
               GOTO 90
            END IF
         END DO
         IF (.NOT.ANY(TEMP(:).EQ.INARRAY1(I))) THEN
            OUTSIZE = OUTSIZE + 1
            TEMP(OUTSIZE) = INARRAY1(I)
         END IF
  90  CONTINUE
      END DO

!     Allocate OUTARRAY to the size of the unique array
      ALLOCATE(OUTARRAY(OUTSIZE))
      OUTARRAY = TEMP(1:OUTSIZE)

!     Sort OUTARRAY in ascending order
      N = SIZE(OUTARRAY)
      JMAX=N-1
      DO 200 I=1,N-1
         TEMP2=1.E38
         DO 100 J=1,JMAX
            IF(OUTARRAY(J).LT.OUTARRAY(J+1)) GO TO 100
              TEMP2=OUTARRAY(J)
              OUTARRAY(J)=OUTARRAY(J+1)
              OUTARRAY(J+1)=TEMP2
              ITEMP=IY(J)
              IY(J)=IY(J+1)
              IY(J+1)=ITEMP
  100    CONTINUE
         JMAX=JMAX-1
  200 CONTINUE

  300 RETURN
      END SUBROUTINE SETDIFF
!/ End of SETDIFF ---------------------------------------------------- /
!/

!/ ------------------------------------------------------------------- /
      SUBROUTINE INTERSECT (INARRAY1 ,INSIZE1  ,INARRAY2 ,INSIZE2  , &
                            OUTARRAY ,OUTSIZE  ,IND1     ,IND2     )
!/
!/                  +-----------------------------------+
!/                  | WAVEWATCH III           NOAA/NCEP |
!/                  |     A. J. van der Westhuysen      |
!/                  |            Jeff Hanson            |
!/                  |        Eve-Marie Devaliere        |
!/                  |                        FORTRAN 95 |
!/                  | Last update :          4-Jan-2013 |
!/                  +-----------------------------------+
!/
!/    03-Feb-2012 : Origination, based on Matlab code   ( version 4.05 )
!/                  by Jeff Hanson & Eve-Marie Devaliere
!/    04-Jan-2013 : Inclusion in trunk                  ( version 4.08 )
!/
!/    Copyright 2009-2013 National Weather Service (NWS),
!/       National Oceanic and Atmospheric Administration.  All rights
!/       reserved.  WAVEWATCH III is a trademark of the NWS. 
!/       No unauthorized use without permission.
!/
      IMPLICIT NONE
!
!  1. Purpose :
!
!     (i)  Returns the elements that are mutual in INARRAY1 and INARRAY2.
!     (ii) Sort the resulting array in ascending order.
!
!  2. Method
!
!  3. Parameters :
!
!     Parameter list
!     ----------------------------------------------------------------
!     INARRAY1  REAL    ARR  input    Input array
!     INSIZE1   INTEGER      input    Size of input array
!     INARRAY2  REAL    ARR  input    Input array
!     INSIZE2   INTEGER      input    Size of input array
!     OUTARRAY  REAL    ARR  output   Output array
!     OUTSIZE   INTEGER      output   Size of output array (number of unique elements)

      INTEGER           :: INSIZE1, INSIZE2, OUTSIZE
      REAL              :: INARRAY1(INSIZE1), INARRAY2(INSIZE2)
      REAL, POINTER :: OUTARRAY(:)
      REAL, POINTER :: IND1(:), IND2(:)

      INTENT (IN)  INARRAY1, INSIZE1, INARRAY2, INSIZE2
!      INTENT (OUT) OUTARRAY, OUTSIZE, IND1, IND2
      INTENT (OUT) OUTSIZE
!
!     Local variables
!     ----------------------------------------------------------------
!     INARRAY1, INARRAY2 - arrays for which to find the intersection
!     IY - array to be carried with X (all swaps of X elements are        ??? EDIT!
!          matched in IY .  After the sort IY(J) contains the original
!          postition of the value X(J) in the unsorted X array.
!     N -  number of values in array X to be sorted

      REAL    :: TEMP(MIN(INSIZE1,INSIZE2))
      REAL    :: TEMP2
      INTEGER :: N, NN, I, J,  JMAX
!
!  4. Subroutines used :
!
!      Name      Type  Module   Description
!     ----------------------------------------------------------------
!      -
!
!  5. Subroutines calling
!
!     findIJV3
!
!  6. Error messages :
!
!  7. Remarks :
!
!  8. Structure :
!
!     -
!
!  9. Switches :
!
!     None defined yet.
!
! 10. Source code :
!
!/ ------------------------------------------------------------------- /
 
!     NOTE: This routine can be improved further by removing "IF ( FOUND ) CYCLE"
!     Initialize TEMP array with dummy values
      TEMP(:) = 9999.
      OUTSIZE = 0
      DO I=1,SIZE(INARRAY1)
         DO J=1,SIZE(INARRAY2)
            IF (INARRAY2(J).EQ.INARRAY1(I)) THEN
               ! Found a match
               IF (.NOT.ANY(TEMP(:).EQ.INARRAY1(I))) THEN
                 OUTSIZE = OUTSIZE + 1
                 TEMP(OUTSIZE) = INARRAY1(I)
                 GOTO 90
               END IF
            END IF
         END DO

  90  CONTINUE
      END DO

!     Allocate OUTARRAY to the size of the unique array
      ALLOCATE(OUTARRAY(OUTSIZE))
      ALLOCATE(IND1(OUTSIZE))
      ALLOCATE(IND2(OUTSIZE))
      OUTARRAY = TEMP(1:OUTSIZE)

!     Sort OUTARRAY in ascending order
      N = SIZE(OUTARRAY)
      JMAX=N-1
      DO 200 I=1,N-1
         TEMP2=1.E38
         DO 100 J=1,JMAX
            IF(OUTARRAY(J).LT.OUTARRAY(J+1)) GO TO 100
              TEMP2=OUTARRAY(J)
              OUTARRAY(J)=OUTARRAY(J+1)
              OUTARRAY(J+1)=TEMP2
  100    CONTINUE
         JMAX=JMAX-1
  200 CONTINUE

!     Find orginal indices of the values in OUTARRAY 
!     in INARRAY1 and INARRAY2
      DO N = 1, OUTSIZE
         DO NN = 1, INSIZE1
            IF (INARRAY1(NN).EQ.OUTARRAY(N)) IND1(N)=NN
         END DO
         DO NN = 1, INSIZE2
            IF (INARRAY2(NN).EQ.OUTARRAY(N)) IND2(N)=NN
         END DO
      END DO

      RETURN
      END SUBROUTINE INTERSECT
!/ End of INTERSECT -------------------------------------------------- /
!/

!/ ------------------------------------------------------------------- / 
      SUBROUTINE UNION (INARRAY1,   INSIZE1,  INARRAY2,   INSIZE2, &
                        OUTARRAY,   OUTSIZE)
!/
!/                  +-----------------------------------+
!/                  | WAVEWATCH III           NOAA/NCEP |
!/                  |     A. J. van der Westhuysen      |
!/                  |            Jeff Hanson            |
!/                  |        Eve-Marie Devaliere        |
!/                  |                        FORTRAN 95 |
!/                  | Last update :          4-Jan-2013 |
!/                  +-----------------------------------+
!/
!/    03-Feb-2012 : Origination, based on Matlab code   ( version 4.05 )
!/                  by Jeff Hanson & Eve-Marie Devaliere
!/    04-Jan-2013 : Inclusion in trunk                  ( version 4.08 )
!/
!/    Copyright 2009-2013 National Weather Service (NWS),
!/       National Oceanic and Atmospheric Administration.  All rights
!/       reserved.  WAVEWATCH III is a trademark of the NWS. 
!/       No unauthorized use without permission.
!/
      IMPLICIT NONE
!
!  1. Purpose :
!
!     (i)  Returns the union of INARRAY1 and INARRAY2.
!     (ii) Sort the resulting array in ascending order.
!
!  2. Method
!

!
!  3. Parameters :
!
!     Parameter list
!     ----------------------------------------------------------------
!     INARRAY1  REAL    ARR  input    Input array
!     INSIZE1   INTEGER      input    Size of input array
!     INARRAY2  REAL    ARR  input    Input array
!     INSIZE2   INTEGER      input    Size of input array
!     OUTARRAY  REAL    ARR  output   Output array
!     OUTSIZE   INTEGER      output   Size of output array

      INTEGER           :: INSIZE1, INSIZE2, OUTSIZE
      REAL              :: INARRAY1(INSIZE1), INARRAY2(INSIZE2)
      REAL, POINTER :: OUTARRAY(:)

      INTENT (IN)  INARRAY1, INSIZE1, INARRAY2, INSIZE2
!      INTENT (OUT) OUTARRAY, OUTSIZE
      INTENT (OUT) OUTSIZE
!
!     Local variables
!     ----------------------------------------------------------------
      REAL :: COMBINE(INSIZE1+INSIZE2)
!
!  4. Subroutines used :
!
!      Name      Type  Module   Description
!     ----------------------------------------------------------------
!      UNIQUE
!
!  5. Subroutines calling
!
!     combineSys
!
!  6. Error messages :
!
!  7. Remarks :
!
!  8. Structure :
!
!     -
!
!  9. Switches :
!
!     None defined yet.
!
! 10. Source code :
!
!/ ------------------------------------------------------------------- /

      IF ((INSIZE1+INSIZE2).GT.0) THEN
         COMBINE = (/INARRAY1,INARRAY2/)
         IF (SIZE(COMBINE).EQ.0) &
            WRITE(20,*) '***4.Calling UNIQUE w. len=0!'
         CALL UNIQUE(REAL(COMBINE),SIZE(COMBINE),OUTARRAY,OUTSIZE)
      ELSE
         ALLOCATE(OUTARRAY(0))
         OUTSIZE = 0
      END IF

      RETURN
      END SUBROUTINE UNION
!/ End of UNION ------------------------------------------------------ /
!/

!/ ------------------------------------------------------------------- /
      INTEGER FUNCTION LENGTH(ARRAY,ARRSIZE,VAL)
!/
!/                  +-----------------------------------+
!/                  | WAVEWATCH III           NOAA/NCEP |
!/                  |     A. J. van der Westhuysen      |
!/                  |            Jeff Hanson            |
!/                  |        Eve-Marie Devaliere        |
!/                  |                        FORTRAN 95 |
!/                  | Last update :          4-Jan-2013 |
!/                  +-----------------------------------+
!/
!/    03-Feb-2012 : Origination, based on Matlab code   ( version 4.05 )
!/                  by Jeff Hanson & Eve-Marie Devaliere
!/    04-Jan-2013 : Inclusion in trunk                  ( version 4.08 )
!/
!/    Copyright 2009-2013 National Weather Service (NWS),
!/       National Oceanic and Atmospheric Administration.  All rights
!/       reserved.  WAVEWATCH III is a trademark of the NWS. 
!/       No unauthorized use without permission.
!/
      IMPLICIT NONE
!
!  1. Purpose :
!
!     Find largest index in ARRAY with a value not equal to the 
!     filler value VAL.
!     E.g. If VAL = 9999. and ARRAY = [X X X X 9999. 9999. 9999.], 
!     the function returns 4.
!
!  3. Parameters :
!
!     Parameter list
!     ----------------------------------------------------------------
      INTEGER :: ARRSIZE
      REAL :: ARRAY(ARRSIZE)
      REAL :: VAL
!
!     Local variables
!     ----------------------------------------------------------------
      REAL :: FIELD
      INTEGER :: I
!
! 10. Source code :
!
!/ ------------------------------------------------------------------- /
      IF (ARRSIZE.GT.0) THEN
         I = 1
         FIELD = ARRAY(I)
         DO WHILE (FIELD.NE.VAL)
            I = I+1
            IF (I.GT.SIZE(ARRAY)) EXIT
            FIELD = ARRAY(I)
         END DO
         LENGTH = I-1
      ELSE
         LENGTH = 0
      END IF
 
      RETURN
      END FUNCTION LENGTH
!/ End of LENGTH ----------------------------------------------------- /
!/

!/ ------------------------------------------------------------------- /
      INTEGER FUNCTION FINDFIRST(ARRAY,ARRSIZE,VAL)
!/
!/                  +-----------------------------------+
!/                  | WAVEWATCH III           NOAA/NCEP |
!/                  |     A. J. van der Westhuysen      |
!/                  |            Jeff Hanson            |
!/                  |        Eve-Marie Devaliere        |
!/                  |                        FORTRAN 95 |
!/                  | Last update :          4-Jan-2013 |
!/                  +-----------------------------------+
!/
!/    03-Feb-2012 : Origination, based on Matlab code   ( version 4.05 )
!/                  by Jeff Hanson & Eve-Marie Devaliere
!/    04-Jan-2013 : Inclusion in trunk                  ( version 4.08 )
!/
!/    Copyright 2009-2013 National Weather Service (NWS),
!/       National Oceanic and Atmospheric Administration.  All rights
!/       reserved.  WAVEWATCH III is a trademark of the NWS. 
!/       No unauthorized use without permission.
!/
      IMPLICIT NONE
!
!  1. Purpose :
!
!     Fast algorithm to find the *first* index IND in ARRAY 
!     for which ARRAY(IND) = VAL. Use only when there are
!     no duplicates in ARRAY!
!
!  3. Parameters :
!
!     Parameter list
!     ----------------------------------------------------------------
      INTEGER :: ARRSIZE
      REAL :: ARRAY(ARRSIZE)
      REAL :: VAL
!
!     Local variables
!     ----------------------------------------------------------------
      INTEGER :: IND
!
! 10. Source code :
!
!/ ------------------------------------------------------------------- /
      IND = 1
      DO WHILE (IND.LE.ARRSIZE)
         IF ( ARRAY(IND).EQ.VAL ) EXIT
         IND = IND + 1
      END DO
      IF (IND.GT.ARRSIZE) THEN
         FINDFIRST = 0
      ELSE
         FINDFIRST = IND
      ENDIF

      RETURN
      END FUNCTION FINDFIRST
!/ End of FINDFIRST -------------------------------------------------- /
!/

!/ ------------------------------------------------------------------- /
      REAL FUNCTION STD(ARRAY,N)
!/
!/                  +-----------------------------------+
!/                  | WAVEWATCH III           NOAA/NCEP |
!/                  |     A. J. van der Westhuysen      |
!/                  |            Jeff Hanson            |
!/                  |        Eve-Marie Devaliere        |
!/                  |                        FORTRAN 95 |
!/                  | Last update :          4-Jan-2013 |
!/                  +-----------------------------------+
!/
!/    03-Feb-2012 : Origination, based on Matlab code   ( version 4.05 )
!/                  by Jeff Hanson & Eve-Marie Devaliere
!/    04-Jan-2013 : Inclusion in trunk                  ( version 4.08 )
!/
!/    Copyright 2009-2013 National Weather Service (NWS),
!/       National Oceanic and Atmospheric Administration.  All rights
!/       reserved.  WAVEWATCH III is a trademark of the NWS. 
!/       No unauthorized use without permission.
!/
      IMPLICIT NONE
!
!  1. Purpose :
!
!     Computes standard deviation.
!
!  3. Parameters :
!
!     Parameter list
!     ----------------------------------------------------------------
!     ARRAY    REAL    Input array for which to compute the std dev.
!     N        INT     Size of ARRAY
!
      REAL    :: ARRAY(N)
      INTEGER :: N
!
!     Local variables
!     ----------------------------------------------------------------
      REAL    :: MN
!
! 10. Source code :
!
!/ ------------------------------------------------------------------- /
      IF (N.GT.1) THEN
         MN = SUM(ARRAY)/N
         STD = SQRT( 1/(REAL(N)-1)*SUM( (ARRAY(:)-MN)**2 ) )
      ELSE
         STD = 0.
      END IF      

      RETURN
      END FUNCTION STD
!/ End of spiralTrackV3 ---------------------------------------------- /
!/
      END MODULE W3STRKMD
!/
!/ End of module WMWAVEMD -------------------------------------------- /
!/
