#include "w3macros.h"
!/ ------------------------------------------------------------------- /
      MODULE WMGRIDMD
!/
!/                  +-----------------------------------+
!/                  | WAVEWATCH III           NOAA/NCEP |
!/                  |           H. L. Tolman            |
!/                  |           W. E. Rogers            |
!/                  |                        FORTRAN 90 |
!/                  | Last update :         10-Dec-2014 |
!/                  +-----------------------------------+
!/
!/    28-Dec-2005 : Origination WMGLOW, WMGHGH, WMRSPC. ( version 3.08 )
!/    09-Mar-2006 : Carry land mask in WMGHGH.          ( version 3.09 )
!/    24-Apr-2006 : Origination WMGEQL.                 ( version 3.09 )
!/    25-Jul-2006 : Point output grid in WMRSPC.        ( version 3.10 )
!/    23-Dec-2006 : Adding group test in WMGEQL.        ( version 3.10 )
!/    28-Dec-2006 : Simplify NIT for partial comm.      ( version 3.10 )
!/    22-Jan-2007 : Add saving of NAVMAX in WMGEQL.     ( version 3.10 )
!/    02-Feb-2007 : Setting FLAGST in WMGEQL.           ( version 3.10 )
!/    07-Feb-2007 : Setting FLAGST in WMGHGH.           ( version 3.10 )
!/    15-Feb-2007 : Tweaking MAPODI algorithm in WMGEQL.( version 3.10 )
!/    11-Apr-2008 : Bug fix active edges WMGEQL.        ( version 3.13 )
!/    14-Apr-2008 : Bug fix for global grids WMGEQL.    ( version 3.13 )
!/    26-Mar-2009 : Adding test output !/T9 to WMGLOW.  ( version 3.14 )
!/    20-May-2009 : Linking FLAGST and FLGHG1.          ( version 3.14 )
!/    26-May-2009 : Fix erroneous cyclic upd in WMGHGH. ( version 3.14 )
!/    29-May-2009 : Preparing distribution version.     ( version 3.14 )
!/    30-Oct-2009 : Implement run-time grid selection.  ( version 3.14 )
!/                  (W. E. Rogers & T. J. Campbell, NRL)
!/    06-Dec-2010 : Change from GLOBAL (logical) to ICLOSE (integer) to
!/                  specify index closure for a grid.   ( version 3.14 )
!/                  (T. J. Campbell, NRL)
!/    23-Dec-2010 : Fix HPFAC and HQFAC by including the COS(YGRD)
!/                  factor with DXDP and DXDQ terms.    ( version 3.14 )
!/                  (T. J. Campbell, NRL)
!/    12-Mar-2012 : Use MPI_COMM_NULL in checks.        ( version 3.14 )
!/    06-Jun-2012 : Porting bugfixes from 3.14 to 4.07  ( version 4.07 )
!/    05-Sep-2012 : Implementation of UNGTYPE with SCRIP
!/                       (Mathieu Dutour Sikiric, IRB; Aron Roland, Z&P)
!/    21-Sep-2012 : Modify WMGHGH to support SCRIP remap( version 4.11 )
!/                  write/read capabilities (K. Lind, NRL)
!/    05-Aug-2013 : Change PR2/3 to UQ/UNO in distances.( version 4.12 )
!/    10-Dec-2014 : Add checks for allocate status      ( version 5.04 )
!/
!/    Copyright 2009-2013 National Weather Service (NWS),
!/       National Oceanic and Atmospheric Administration.  All rights
!/       reserved.  WAVEWATCH III is a trademark of the NWS. 
!/       No unauthorized use without permission.
!/
!  1. Purpose :
!
!     Routines to determine and process grid dependencies in the 
!     multi-grid wave model.
!
!  2. Variables and types :
!
!  3. Subroutines and functions :
!
!      Name      Type  Scope    Description
!     ----------------------------------------------------------------
!      WMGLOW    Subr. Public   Dependencies to lower ranked grids.
!      WMGHGH    Subr. Public   Dependencies to higher ranked grids.
!      WMGEQL    Subr. Public   Dependencies to same ranked grids.
!      WMRSPC    Subr. Public   Make map of flags for spectral 
!                               conversion between grids.
!     ----------------------------------------------------------------
!
!  4. Subroutines and functions used :
!
!      Name      Type  Module   Description
!     ----------------------------------------------------------------
!      W3SETO, W3SETG, W3DMO5, WMSETM
!                Subr. W3xDATMD Manage data structures.
!
!      STRACE    Sur.  W3SERVMD Subroutine tracing.
!      EXTCDE    Subr.   Id.    Program abort.
!
!      MPI_BCAST, MPI_BARRIER
!                Subr. mpif.h   Comunication routines.
!     ----------------------------------------------------------------
!
!  5. Remarks :
!
!      - WMGLOW and WMGHGH need to be run in this order to
!        assure proper resolving of cross-dependencies.
!      - WMGLOW and WMGEQL, idem.
!
!  6. Switches :
!
!     !/PRn  propagation scheme.
!     !/UQ   propagation scheme.
!     !/UNO  propagation scheme.
!
!     !/SHRD Distributed memory approach
!     !/DIST
!     !/MPI
!
!     !/O12  Removed boundary points output WMGEQL (central).
!     !/O13  Removed boundary points output WMGEQL (edge).
!
!     !/S    Enable subroutine tracing.
!     !/Tn   Enable test output.
!
!  7. Source code :
!
!/ ------------------------------------------------------------------- /
!/
!/ Specify default accessibility
!/
      PUBLIC
!/
!/ Module private variable for checking error returns
!/
      INTEGER, PRIVATE        :: ISTAT
!/
      CONTAINS
!/ ------------------------------------------------------------------- /
      SUBROUTINE WMGLOW ( FLRBPI )
!/
!/                  +-----------------------------------+
!/                  | WAVEWATCH III           NOAA/NCEP |
!/                  |           H. L. Tolman            |
!/                  |           W. E. Rogers            |
!/                  |                        FORTRAN 90 |
!/                  | Last update :         10-Dec-2014 !
!/                  +-----------------------------------+
!/
!/    06-Oct-2005 : Origination.                        ( version 3.08 )
!/    10-Feb-2006 : Add test on grid resolution.        ( version 3.09 )
!/    26-Mar-2009 : Adding test output !/T9.            ( version 3.14 )
!/    30-Oct-2009 : Implement run-time grid selection.  ( version 3.14 )
!/                  (W. E. Rogers & T. J. Campbell, NRL)
!/    22-Dec-2010 : Adapt for use with irregular grids  ( version 3.14 )
!/                  (W. E. Rogers, NRL)
!/    12-Mar-2012 : Use MPI_COMM_NULL in checks.        ( version 4.07 )
!/    06-Jun-2012 : Porting bugfixes from 3.14 to 4.07  ( version 4.07 )
!/    10-Dec-2014 : Add checks for allocate status      ( version 5.04 )
!/
!  1. Purpose :
!
!     Determine relations to lower ranked grids for each grid.
!     On the fly, the oposite relations are also saved.
!
!  2. Method :
!
!     Map active boundary points to lower ranked grids.
!
!  3. Parameters :
!
!     Parameter list
!     ----------------------------------------------------------------
!       FLRBPI  L.A.   O   Array with flags for external file use.
!     ----------------------------------------------------------------
!
!  4. Subroutines used :
!
!      Name      Type  Module   Description
!     ----------------------------------------------------------------
!      W3SETO, W3SETG, W3DMO5
!                Subr. W3xDATMD Manage data structures.
!
!      STRACE    Subr. W3SERVMD Subroutine tracing.
!      EXTCDE    Subr.   Id.    Program abort.
!
!      MPI_BCAST, MPI_BARRIER
!                Subr. mpif.h   Comunication routines.
!     ----------------------------------------------------------------
!
!  5. Called by :
!
!      Name      Type  Module   Description
!     ----------------------------------------------------------------
!      WMINIT    Subr  WMINITMD Multi-grid model initialization.
!     ----------------------------------------------------------------
!
!  6. Error messages :
!
!  7. Remarks :
!
!     - For MPI version it is assumed that NX, NY, NSEA, and NSEAL are
!       properly initialized even if the grid is not run on the local
!       process.
!
!  8. Structure :
!
!     See source code.
!
!  9. Switches :
!
!     !/MPI  Distribbuted memory management.
!
!     !/S    Enable subroutine tracing.
!     !/T    Enable test output.
!     !/T1   Test output for individual boundary points
!     !/T2   Test output cross-reference table
!     !/T9   Test output of map of boundary origine.
!
! 10. Source code :
!
!/ ------------------------------------------------------------------- /
!
      USE W3SERVMD, ONLY: EXTCDE
!/S      USE W3SERVMD, ONLY: STRACE
!
      USE W3GDATMD
      USE W3ODATMD
      USE W3TRIAMD
      USE WMMDATMD
!
      IMPLICIT NONE
!
!/MPI      INCLUDE "mpif.h"
!/
!/ ------------------------------------------------------------------- /
!/ Parameter list
!/
      LOGICAL, INTENT(OUT), OPTIONAL :: FLRBPI(NRGRD)
!/
!/ ------------------------------------------------------------------- /
!/ Local parameters
!/
      INTEGER                 :: I, IBI, IX, IY, JS, J,       &
                                 JTOT, I1, J1, I2, J2
!/MPI      INTEGER                 :: NXYG, IERR_MPI
!/S      INTEGER, SAVE           :: IENT = 0
      INTEGER, ALLOCATABLE    :: TSTORE(:,:)
!/MPI      LOGICAL                 :: FLBARR
      REAL                    :: XA, YA
      REAL                    :: FACTOR
      LOGICAL                 :: GRIDD(NRGRD,NRGRD) ! indicates grid-to-grid
                                                    ! dependency
      LOGICAL                 :: RFILE(NRGRD),  FLAGOK
      LOGICAL                 :: INGRID ! indicates whether boundary point
                               ! is in lower rank grid
      INTEGER                 :: IVER(4),JVER(4) ! (I,J) indices of vertices 
                               ! of cell (in lower rank grid J) enclosing 
                               ! boundary point (in higher rank grid I)
      REAL                    :: RW(4) ! Array of interpolation weights.
      INTEGER                 :: KVER ! counter for 4 vertices

      REAL                    :: DX_MIN_GRIDI,DY_MIN_GRIDI,DX_MAX_GRIDI, &
                                 DY_MAX_GRIDI
      REAL                    :: DX_MIN_GRIDJ,DY_MIN_GRIDJ,DX_MAX_GRIDJ, &
                                 DY_MAX_GRIDJ
      INTEGER  :: ITRI, IM1, IM2, IT, JT, ISFIRST, ITOUT, NBRELEVANT
      REAL :: DIST_MIN, DIST_MAX, EDIST
      LOGICAL RESOL_CHECK
!
!/T9      CHARACTER(LEN=1), ALLOCATABLE :: TMAP(:,:)
!/
!/S      CALL STRACE (IENT, 'WMGLOW')
!
! -------------------------------------------------------------------- /
! 1.  Test grid, Initialize and synchronize grids as needed ( !/MPI )
!
!/MPI      FLBARR = .FALSE.
!
      DO I=1, NRGRD
!
        IF ( .NOT. GRIDS(I)%GINIT ) THEN
            IF ( IMPROC .EQ. NMPERR ) WRITE (MDSE,1000) I
            CALL EXTCDE ( 1000 )
          END IF

        CALL W3SETO ( I, MDSE, MDST )
        CALL W3SETG ( I, MDSE, MDST )
!
!/MPI        FLBARR = FLBARR .OR. MDATAS(I)%FBCAST
!/MPI        IF ( MDATAS(I)%FBCAST .AND.                              &
!/MPI             MDATAS(I)%MPI_COMM_BCT.NE.MPI_COMM_NULL ) THEN
!/MPI             NXYG   = GRIDS(I)%NX * GRIDS(I)%NY
!/MPI             CALL MPI_BCAST ( GRIDS(I)%MAPSTA(1,1), NXYG,        &
!/MPI                              MPI_INTEGER, 0,                    &
!/MPI                              MDATAS(I)%MPI_COMM_BCT, IERR_MPI )
!/MPI             CALL MPI_BCAST ( GRIDS(I)%MAPST2(1,1), NXYG,        &
!/MPI                              MPI_INTEGER, 0,                    &
!/MPI                              MDATAS(I)%MPI_COMM_BCT, IERR_MPI )
!/MPI             CALL MPI_BCAST ( GRIDS(I)%MAPFS (1,1), NXYG,        &
!/MPI                              MPI_INTEGER, 0,                    &
!/MPI                              MDATAS(I)%MPI_COMM_BCT, IERR_MPI )
!/MPI             NXYG   = 3*GRIDS(I)%NSEA
!/MPI             CALL MPI_BCAST ( GRIDS(I)%MAPSF (1,1), NXYG,        &
!/MPI                              MPI_INTEGER, 0,                    &
!/MPI                              MDATAS(I)%MPI_COMM_BCT, IERR_MPI )
!/MPI             CALL MPI_BCAST ( GRIDS(I)%CLATIS(1), NSEA, MPI_REAL, 0,&
!/MPI                              MDATAS(I)%MPI_COMM_BCT, IERR_MPI )
!/MPI             CALL MPI_BCAST ( SGRDS(I)%SIG(0), NK+2, MPI_REAL, 0,&
!/MPI                              MDATAS(I)%MPI_COMM_BCT, IERR_MPI )
!/MPI           END IF
!
        END DO
!
!/MPI      IF (FLBARR) CALL MPI_BARRIER (MPI_COMM_MWAVE,IERR_MPI)
!
!/T      WRITE (MDST,9010)
!
! -------------------------------------------------------------------- /
! 2.  Process grids
!
      IF ( FLAGLL ) THEN
          FACTOR = 1.
        ELSE
          FACTOR = 1.E-3
        END IF
!
      GRIDD = .FALSE.
      RFILE = .FALSE.
!
      IF ( .NOT. ALLOCATED(NBI2G) ) THEN
          ALLOCATE ( NBI2G(NRGRD,NRGRD), STAT=ISTAT )
          CHECK_ALLOC_STATUS ( ISTAT )
        END IF
      NBI2G  = 0 
!
!/T      WRITE (MDST,9020)
!
      DO I=1, NRGRD
!
!/T        WRITE (MDST,9021) I, GRANK(I), OUTPTS(I)%OUT5%NBI
!
! 2.a Test for input boundary points
!
        IF ( OUTPTS(I)%OUT5%NBI .EQ. 0 ) THEN
!/T            WRITE (MDST,9022) 'NO INPUT BOUNDARY POINTS, SKIPPING'
            CYCLE
          END IF
!
! 2.b Test for lowest rank
!
        IF ( GRANK(I) .EQ. 1 ) THEN
            RFILE(I) = .TRUE.
!/T            WRITE (MDST,9022) 'RANK = 1, DATA FROM FILE'
            CYCLE
          END IF
!
! 2.c Search for input boundary points
!

!/T        WRITE (MDST,9022) 'SEARCHING FOR ACTIVE BOUNDARY POINTS'
        IBI    = 0
!
! ... Set up data structure for grid
!
        CALL W3SETO ( I, MDSE, MDST )
        CALL W3SETG ( I, MDSE, MDST )
        CALL W3DMO5 ( I, MDSE, MDST, 1 )
        ALLOCATE ( TSTORE(NBI,0:4), STAT=ISTAT )
        CHECK_ALLOC_STATUS ( ISTAT )
!
! ... Set up loop structure for grid
!
        DO IY=1, NY
          DO IX=1, NX

!notes : MAPSTA refers to GRIDS(I)%MAPSTA ...this is set in W3SETG
            IF ( ABS(MAPSTA(IY,IX)) .EQ. 2 ) THEN
                XA     = XGRD(IY,IX) !old code: X0 + REAL(IX-1)*SX
                YA     = YGRD(IY,IX) !old code: Y0 + REAL(IY-1)*SY
!
! ... Loop over previous (lower ranked) grids, going in order from highest 
!          of lower ranked grids (I-1) to lowest of lower ranked grids (1)
!
                JS     = 0
!
                DO J=I-1, 1, -1
!
                  IF ( GRANK(J) .GE. GRANK(I) ) CYCLE
!
! ... Check if in grid

! notes: 
! old version (v4.00):
!        if in grid, return location in grid: a) JX, JY
!                                   (lower left indices of cell), 
!                                             b) RX, RY
!                                   (normalized location in cell)
!        in not in grid, cycle (search next grid)
! new version (v4.01):
!        Check if point within grid and compute interpolation weights using GSU
!        in not in grid, cycle (search next grid)
!
        IF (GRIDS(J)%GTYPE .EQ. UNGTYPE) THEN
          CALL IS_IN_UNGRID(J, XA, YA, ITOUT, IVER, JVER, RW)
          IF (ITOUT.EQ.0) THEN
            INGRID=.FALSE.
          ELSE
            INGRID=.TRUE.
            FLAGOK =( ABS(GRIDS(J)%MAPSTA(JVER(1),IVER(1))).GE.1 .OR.  &
                      RW(1).LT.0.05 ) .AND.      &
                    ( ABS(GRIDS(J)%MAPSTA(JVER(2),IVER(2))).GE.1 .OR.  &
                      RW(2).LT.0.05 ) .AND.      &
                    ( ABS(GRIDS(J)%MAPSTA(JVER(3),IVER(3))).GE.1 .OR.  &
                      RW(3)   .LT.0.05 )
          END IF
          NbRelevant=3
        ELSE
          INGRID = W3GRMP( GRIDS(J)%GSU,  XA,  YA, IVER , JVER, RW )
!          Print *, 'J=', J, 'IX=', IX, 'IY=', IY
!          Print *, 'IN=', INGRID, 'XA=', XA, 'YA=', YA
!          Print *, '    1: IVER=', IVER(1), 'JVER=', JVER(1), 'RW=', RW(1)
!          Print *, '    2: IVER=', IVER(2), 'JVER=', JVER(2), 'RW=', RW(2)
!          Print *, '    3: IVER=', IVER(3), 'JVER=', JVER(3), 'RW=', RW(3)
!          Print *, '    4: IVER=', IVER(4), 'JVER=', JVER(4), 'RW=', RW(4)
          IF (INGRID) THEN
            FLAGOK =( ABS(GRIDS(J)%MAPSTA(JVER(1),IVER(1))).GE.1 .OR.  &
                      RW(1).LT.0.05 ) .AND.      &
                    ( ABS(GRIDS(J)%MAPSTA(JVER(2),IVER(2))).GE.1 .OR.  &
                      RW(2).LT.0.05 ) .AND.      &
                    ( ABS(GRIDS(J)%MAPSTA(JVER(4),IVER(4))).GE.1 .OR.  &
                      RW(4)   .LT.0.05 ) .AND.      &
                    ( ABS(GRIDS(J)%MAPSTA(JVER(3),IVER(3))).GE.1 .OR.  &
                      RW(3)   .LT.0.05 )
          END IF
          NbRelevant=4
        END IF
!  internal name=                 GSU XTIN YTIN    IS     JS  RW   (notes)
!  role=out                       in    in   in   out    out out
!  size=                          ---    1    1     4      4   4
!
! notes:
!      - organization of IVER(4),JVER(4),RW(4) as returned by W3GRMP are
!        as follows:
!              Point 1 : lower i , lower j (JY1,JX1)
!              Point 2 : upper i , lower j (JY1,JX2)
!              Point 3 : upper i , upper j (JY2,JX2)
!              Point 4 : lower i , upper j (JY2,JX1)
!              (counter-clockwise starting from lower i, lower j)
!
!  ... if not in grid, warning message and cycle (search next grid)
        IF ( .NOT.INGRID ) THEN
!/T        IF ( IAPROC .EQ. NAPERR ) THEN
!/T           IF ( FLAGLL ) THEN
!/T              WRITE (NDSE,2000) XA, YA
!/T           ELSE
!/T              WRITE (NDSE,2001) XA, YA
!/T           END IF
!/T        END IF
           CYCLE
        END IF

!
! ... Check against MAPSTA
!

! Notes:
! Old code        | becomes | New code
!-----------------| --------| -------
! (1.-RX)*(1.-RY) | becomes | RW(1)
! RX*(1.-RY)      | becomes | RW(2)
! (1.-RX)*RY      | becomes | RW(4)
! RX*RY           | becomes | RW(3)
! JX1             | becomes | IVER(1)
! JY1             | becomes | JVER(1)
! JX2             | becomes | IVER(3)
! JY2             | becomes | JVER(3)

! Notes:
! IVER(1)=IVER(4), IVER(2)=IVER(3)
! JVER(1)=JVER(2), JVER(3)=JVER(4)

 ! point 1:
                  FLAGOK = ( ABS(GRIDS(J)%MAPSTA(JVER(1),IVER(1))).GE.1 .OR.  &
                                 RW(1).LT.0.05 ) .AND.      &
 ! point 2:
                           ( ABS(GRIDS(J)%MAPSTA(JVER(2),IVER(2))).GE.1 .OR.  &
                                    RW(2).LT.0.05 ) .AND.      &
 ! point 4:
                           ( ABS(GRIDS(J)%MAPSTA(JVER(4),IVER(4))).GE.1 .OR.  &
                                 RW(4)   .LT.0.05 ) .AND.      &
 ! point 3:
                           ( ABS(GRIDS(J)%MAPSTA(JVER(3),IVER(3))).GE.1 .OR.  &
                                    RW(3)   .LT.0.05 ) 
!
                  IF ( .NOT.FLAGOK ) CYCLE
!
! ... We found interpolation data !
!
                  JS     = J
                  IBI    = IBI + 1
                  GRIDD(I,JS) = .TRUE.
!
                  XBPI(IBI)  = XA
                  YBPI(IBI)  = YA
                  ISBPI(IBI) = MAPFS(IY,IX)
!
                  TSTORE(IBI, 0) = JS
!
! notes:
!   To maintain perfect consistency with old code, we would make code such that:
!   -  point 1 in GSU goes to point 1 in RDBPI, TSTORE
!   -  point 2 in GSU goes to point 2 in RDBPI, TSTORE
!   -  point 4 in GSU goes to point 3 in RDBPI, TSTORE
!   -  point 3 in GSU goes to point 4 in RDBPI, TSTORE
!   Instead, here, we map point 4 in GSU goes to point 4 in RDBPI, TSTORE, etc.
!   Thus the ordering of RDBPI, TSTORE has changed.
!   I have no reason to believe that the ordering in RDBPI, TSTORE is important.
!   I have gone through test case mww3_test_02 for gridsets a,b,c,d and found
!      no change in result vs v4.00.
                  
                  DO KVER=1,4
                    IF (KVER .LE. NbRelevant) THEN
                      IF ( ABS(GRIDS(J)%MAPSTA(JVER(KVER),IVER(KVER))).GE.1 &
                          .AND. RW(KVER)   .GT.0.05 ) THEN
                        RDBPI (IBI,KVER) = RW(KVER)
                        TSTORE(IBI,KVER) = GRIDS(J)%MAPFS(JVER(KVER),IVER(KVER))
                      ELSE
                        RDBPI (IBI,KVER) = 0.
                        TSTORE(IBI,KVER) = 0
                      END IF
                    ELSE
                      RDBPI (IBI,KVER) = 0.
                      TSTORE(IBI,KVER) = 0
                    END IF

                  END DO

!
! .....normalize weights to give sum(R)=1
                  RDBPI(IBI,:) = RDBPI(IBI,:) / SUM(RDBPI(IBI,:))
!
! Search was successful, so no need to search through other grids, so exit loop
                  EXIT
                END DO ! "DO J=..."
!
                IF ( JS.EQ.0 .AND. IMPROC.EQ.NMPERR )                 &
                                 WRITE (MDSE,1020) I, IX, IY, XA, YA
!
              END IF ! If a boundary point...

            END DO ! "DO IX=..."
          END DO ! "DO IY=..."

!
! 2.d Error checks
!
        IF ( IBI .EQ. 0 ) THEN
            RFILE(I) = .TRUE.
            IF ( IMPROC .EQ. NMPERR ) WRITE (MDSE,1021)
            DEALLOCATE ( OUTPTS(I)%OUT5%IPBPI, OUTPTS(I)%OUT5%ISBPI,  &
                         OUTPTS(I)%OUT5%XBPI,  OUTPTS(I)%OUT5%YBPI,   &
                         OUTPTS(I)%OUT5%RDBPI, STAT=ISTAT )
            CHECK_DEALLOC_STATUS ( ISTAT )
            CYCLE
          ELSE IF ( IBI .NE. OUTPTS(I)%OUT5%NBI ) THEN
             CALL EXTCDE ( 1020 )
          ENDIF
!
! 2.e Sort spectra by grid, fill IPBPI, and get NBI2 and ....
!

        IPBPI  = 0
        NBI2   = 0
!
        DO J=1, NRGRD
          DO I1=1, NBI
            IF ( TSTORE(I1,0) .NE. J ) CYCLE
            DO J1=1, 4
              IF ( TSTORE(I1,J1).NE.0 .AND. IPBPI(I1,J1).EQ.0 ) THEN
                  NBI2         = NBI2 + 1
                  IPBPI(I1,J1) = NBI2
                  DO I2=I1, NBI
                    IF ( TSTORE(I2,0) .NE. J ) CYCLE
                    DO J2=1, 4
                      IF ( TSTORE(I2,J2) .EQ. TSTORE(I1,J1) )         &
                           IPBPI(I2,J2) = NBI2
                      END DO
                    END DO
                END IF
              END DO
            END DO
          END DO
!
! 2.f Set up spectral storage and cross-grid mapping
!
        CALL W3DMO5 ( I, MDSE, MDST, 3 )
!
        ALLOCATE ( MDATAS(I)%NBI2S(NBI2,2), STAT=ISTAT )
        CHECK_ALLOC_STATUS ( ISTAT )
        NBI2S  =>  MDATAS(I)%NBI2S
!
        DO I1=1, NBI
          DO J1=1, 4
            IF ( IPBPI(I1,J1) .NE. 0 ) THEN
                NBI2S(IPBPI(I1,J1),1) = TSTORE(I1,0)
                NBI2S(IPBPI(I1,J1),2) = TSTORE(I1,J1)
              END IF
            END DO
          END DO
!
        DO I1=1, NBI2
          NBI2G(I,NBI2S(I1,1)) = NBI2G(I,NBI2S(I1,1)) + 1
          END DO
!
! 2.g Test output
!
!/T1        WRITE (MDST,9023)
!/T1        DO J=1, NBI
!/T1          WRITE (MDST,9024) J, ISBPI(J), FACTOR*XBPI(J),          &
!/T1             FACTOR*YBPI(J), IPBPI(J,:), RDBPI(J,:), TSTORE(J,:)
!/T1          END DO
!
!/T2        WRITE (MDST,9025)
!/T2        DO J=1, NBI2
!/T2          WRITE (MDST,9026) J, NBI2S(J,:)
!/T2          END DO
!
!/T9        ALLOCATE ( TMAP(NX,NY), STAT=ISTAT )
!/T9        CHECK_ALLOC_STATUS ( ISTAT )
!
!/T9        DO IX=1, NX
!/T9          DO IY=1, NY
!/T9            IF ( ABS(MAPSTA(IY,IX)) .EQ. 0 ) then
!/T9                TMAP(IX,IY) = '/'
!/T9              ELSE IF ( ABS(MAPSTA(IY,IX)) .EQ. 1 ) then
!/T9                TMAP(IX,IY) = '-'
!/T9              ELSE IF ( ABS(MAPSTA(IY,IX)) .EQ. 2 ) then
!/T9                TMAP(IX,IY) = 'X'
!/T9              END IF
!/T9            END DO
!/T9          END DO
!
!/T9        DO J=1, NBI
!/T9          IX = MAPSF(ISBPI(J),1)
!/T9          IY = MAPSF(ISBPI(J),2)
!/T9          WRITE (TMAP(IX,IY),'(I1)') TSTORE(J,0)
!/T9          END DO
!
!/T9        DO J=1, 1+(NX-1)/130
!/T9          WRITE (MDST,9029) I, J
!/T9          DO IY=NY, 1, -1
!/T9            I1 = J*130-129
!/T9            I2 = MIN ( NX , J*130 )
!/T9            WRITE (MDST,'(1X,130A1)') TMAP(I1:I2,IY)
!/T9            END DO
!/T9          END DO
!
!/T9        DEALLOCATE ( TMAP, STAT=ISTAT )
!/T9        CHECK_DEALLOC_STATUS ( ISTAT )
!
        DEALLOCATE ( TSTORE, STAT=ISTAT )
        CHECK_DEALLOC_STATUS ( ISTAT )
!
        END DO
!
!/T      WRITE (MDST,9027)
!/T      DO I=1, NRGRD
!/T        WRITE (MDST,9028) OUTPTS(I)%OUT5%NBI, OUTPTS(I)%OUT5%NBI2, &
!/T                          RFILE(I), NBI2G(I,:)
!/T        END DO
!
! -------------------------------------------------------------------- /
! 3.  Finalyze grid dependencies in GRDLOW
! 3.a Get size of array and dimension
!

! notes: 
!    GRIDD(I,J) indicates whether grid I is dependent on lower ranked grid J
!    JS counts the number of grids J that grid I is dependent on      
!    GRDLOW is sized to accomodate the grid with the largest JS   

      JTOT   = 0
      DO I=1, NRGRD
        JS     = 0
        DO J=1, NRGRD
          IF ( GRIDD(I,J) ) JS = JS + 1
          END DO
        JTOT   = MAX ( JTOT , JS )
        END DO
!
      IF ( ALLOCATED(GRDLOW) ) THEN
          DEALLOCATE ( GRDLOW, STAT=ISTAT )
          CHECK_DEALLOC_STATUS ( ISTAT )
        END IF
      ALLOCATE ( GRDLOW(NRGRD,0:JTOT), STAT=ISTAT )
      CHECK_ALLOC_STATUS ( ISTAT )
      GRDLOW = 0
!
!/T      WRITE (MDST,9030) JTOT
!
! 3.b Fill array
!
      FLAGOK = .TRUE.
!
      DO I=1, NRGRD
        JTOT   = 0
        DO J=1, NRGRD
          IF ( GRIDD(I,J) ) THEN
            JTOT   = JTOT + 1
            GRDLOW(I,JTOT) = J
! ... error checking: catch situation where ranks are inconsistent with 
!                     resolution

! notes:
! old code:   SXJ=GRIDS(J)%SX 
!             SXI=GRIDS(I)%SX
!             SYJ=GRIDS(J)%SY
!             SYI=GRIDS(I)%SY
!             also, old code did not need to check both min and max, 
!             since they were the same
! new code:
!       SXI(:,:) ==> GRIDS(I)%HPFAC ! resolution in higher rank grid I 
!                    (approximate in case of irregular grids)
!       SYI(:,:) ==> GRIDS(I)%HQFAC ! viz.
!       SXJ(:,:) ==> GRIDS(J)%HPFAC ! resolution in lower rank grid J
!                    (approximate in case of irregular grids)
!       SYJ(:,:) ==> GRIDS(J)%HQFAC ! viz.

! notes:
! for irregular grids, we require
!       1) smallest cell in low rank grid is larger than smallest cell
!          in high rank grid
!       2) largest cell in low rank grid is larger than largest cell
!          in high rank grid
! Each dimension (along i/p and j/q axes) is checked separately,
!     making 4 checks total.
! This is strict, and may generate "false positives" in error checking
!     here. In this case, the user may wish to disable this error checking.
! For case of regular grids, we cannot use HPFAC, since it goes to zero 
!     at pole. We instead use good ol' SX and SY
           
            IF ( GRIDS(I)%GTYPE .EQ. CLGTYPE ) THEN
               DX_MIN_GRIDI=MINVAL(GRIDS(I)%HPFAC)
               DY_MIN_GRIDI=MINVAL(GRIDS(I)%HQFAC)
               DX_MAX_GRIDI=MAXVAL(GRIDS(I)%HPFAC)
               DY_MAX_GRIDI=MAXVAL(GRIDS(I)%HQFAC)
            ELSEIF ( GRIDS(I)%GTYPE .EQ. RLGTYPE ) THEN
               DX_MIN_GRIDI=GRIDS(I)%SX
               DY_MIN_GRIDI=GRIDS(I)%SY
               DX_MAX_GRIDI=GRIDS(I)%SX
               DY_MAX_GRIDI=GRIDS(I)%SY
            ELSEIF ( GRIDS(I)%GTYPE .EQ. UNGTYPE ) THEN
               ISFIRST=1
               DIST_MAX=0
               DIST_MIN=0
               DO ITRI=1,GRIDS(I)%NTRI
                 DO IT=1,3
                   IF (IT.EQ.3) THEN
                     JT=1
                   ELSE
                     JT=IT+1
                   END IF
                   IM1=GRIDS(I)%TRIGP(ITRI,IT)
                   IM2=GRIDS(I)%TRIGP(ITRI,JT)
                   EDIST=W3DIST(FLAGLL, GRIDS(I)%XYB(IM1,1), &
                         GRIDS(I)%XYB(IM1,2), GRIDS(I)%XYB(IM2,1), &
                         GRIDS(I)%XYB(IM2,2))
                   IF (ISFIRST.EQ.1) THEN
                     DIST_MAX=EDIST
                     DIST_MIN=EDIST
                     ISFIRST=0
                   ELSE
                     IF (EDIST.GT.DIST_MAX) THEN
                       DIST_MAX=EDIST
                     END IF
                     IF (EDIST.LT.DIST_MIN) THEN
                       DIST_MIN=EDIST
                     END IF
                   END IF
                 END DO
               END DO
               DX_MIN_GRIDI=DIST_MIN
               DY_MIN_GRIDI=DIST_MIN
               DX_MAX_GRIDI=DIST_MAX
               DY_MAX_GRIDI=DIST_MAX
            ELSE
               CALL EXTCDE ( 601 )
            END IF

            IF ( GRIDS(J)%GTYPE .EQ. CLGTYPE ) THEN
               DX_MIN_GRIDJ=MINVAL(GRIDS(J)%HPFAC)
               DY_MIN_GRIDJ=MINVAL(GRIDS(J)%HQFAC)
               DX_MAX_GRIDJ=MAXVAL(GRIDS(J)%HPFAC)
               DY_MAX_GRIDJ=MAXVAL(GRIDS(J)%HQFAC)
            ELSEIF ( GRIDS(J)%GTYPE .EQ. RLGTYPE ) THEN
               DX_MIN_GRIDJ=GRIDS(J)%SX
               DY_MIN_GRIDJ=GRIDS(J)%SY
               DX_MAX_GRIDJ=GRIDS(J)%SX
               DY_MAX_GRIDJ=GRIDS(J)%SY
            ELSEIF ( GRIDS(J)%GTYPE .EQ. UNGTYPE ) THEN
               ISFIRST=1
               DIST_MAX=0
               DIST_MIN=0
               DO ITRI=1,GRIDS(J)%NTRI
                 DO IT=1,3
                   IF (IT.EQ.3) THEN
                     JT=1
                   ELSE
                     JT=IT+1
                   END IF
                   IM1=GRIDS(J)%TRIGP(ITRI,IT)
                   IM2=GRIDS(J)%TRIGP(ITRI,JT)
                   EDIST=W3DIST(FLAGLL, GRIDS(J)%XYB(IM1,1), &
                         GRIDS(J)%XYB(IM1,2), GRIDS(J)%XYB(IM2,1), &
                         GRIDS(J)%XYB(IM2,2))
                   IF (ISFIRST.EQ.1) THEN
                     DIST_MAX=EDIST
                     DIST_MIN=EDIST
                     ISFIRST=0
                   ELSE
                     IF (EDIST.GT.DIST_MAX) THEN
                       DIST_MAX=EDIST
                     END IF
                     IF (EDIST.LT.DIST_MIN) THEN
                       DIST_MIN=EDIST
                     END IF
                   END IF
                 END DO
               END DO
               DX_MIN_GRIDJ=DIST_MIN
               DY_MIN_GRIDJ=DIST_MIN
               DX_MAX_GRIDJ=DIST_MAX
               DY_MAX_GRIDJ=DIST_MAX
           ELSE
               CALL EXTCDE ( 602 )
           END IF

           RESOL_CHECK=.FALSE.
!/T38      RESOL_CHECK=.TRUE.
           IF (RESOL_CHECK) THEN
              IF ( DX_MIN_GRIDJ .LT. 0.99*DX_MIN_GRIDI .OR.    &
                   DY_MIN_GRIDJ .LT. 0.99*DY_MIN_GRIDI .OR.    &
                   DX_MAX_GRIDJ .LT. 0.99*DX_MAX_GRIDI .OR.    &
                   DY_MAX_GRIDJ .LT. 0.99*DY_MAX_GRIDI  ) THEN
                 Print *, 'DX_MIN_GRID I=', DX_MIN_GRIDI, ' J=', DX_MIN_GRIDJ
                 Print *, 'DX_MAX_GRID I=', DX_MAX_GRIDI, ' J=', DX_MAX_GRIDJ
                 IF ( IMPROC.EQ.NMPERR ) WRITE (MDSE,1030)  &
                      J, GRANK(J), DX_MIN_GRIDJ, DY_MIN_GRIDJ, &
                      DX_MAX_GRIDJ, DY_MAX_GRIDJ, &
                      I, GRANK(I), DX_MIN_GRIDI, DY_MIN_GRIDI, &
                      DX_MAX_GRIDI, DY_MAX_GRIDI
                 FLAGOK = .FALSE.
              END IF
           END IF
              
          END IF ! IF ( GRIDD(I,J) ) THEN
            
        END DO ! DO J=...
        GRDLOW(I,0) = JTOT
      END DO ! DO I=...
!
!/T      WRITE (MDST,9031)
!/T      DO I=1, NRGRD
!/T        WRITE (MDST,9032) I, GRDLOW(I,0:GRDLOW(I,0))
!/T        END DO
!
      IF ( .NOT. FLAGOK ) CALL EXTCDE ( 1030 )
!
! -------------------------------------------------------------------- /
! 4.  Finalyze grid dependencies in GRDHGH
! 4.a Get size of array and dimension
!
      JTOT   = 0
      DO I=1, NRGRD
        JS     = 0
        DO J=1, NRGRD
          IF ( GRIDD(J,I) ) JS = JS + 1
          END DO
        JTOT   = MAX ( JTOT , JS )
        END DO
!
      IF ( ALLOCATED(GRDHGH) ) THEN
          DEALLOCATE ( GRDHGH, STAT=ISTAT )
          CHECK_DEALLOC_STATUS ( ISTAT )
        END IF
      ALLOCATE ( GRDHGH(NRGRD,0:JTOT), STAT=ISTAT )
      CHECK_ALLOC_STATUS ( ISTAT )
      GRDHGH = 0
!
!/T      WRITE (MDST,9040) JTOT
!
! 4.b Fill array
!
      DO I=1, NRGRD ! low rank grid
        JTOT   = 0
        DO J=1, NRGRD
          IF ( GRIDD(J,I) ) THEN ! grid j is of higher rank than grid i
                                 ! *and* there is dependency
              JTOT   = JTOT + 1  ! count the number of grids of higher 
                                 ! rank than grid i
              GRDHGH(I,JTOT) = J ! save the grid number of the higher rank grid
            END IF
          END DO
        GRDHGH(I,0) = JTOT ! save the count of higher ranked grids
        END DO
!
!/T      WRITE (MDST,9041)
!/T      DO I=1, NRGRD
!/T        WRITE (MDST,9042) I, GRDHGH(I,0:GRDHGH(I,0))
!/T        END DO
!
! -------------------------------------------------------------------- /
! 5.  Export file flags
!
      IF ( PRESENT(FLRBPI) ) FLRBPI = RFILE
!
      RETURN
!
! Formats
!
 1000 FORMAT (/' *** WAVEWATCH III ERROR IN WMGLOW : *** '/        &
               '     GRID NOT INITIALIZED, GRID NR',I4 /)
!
 1020 FORMAT (/' *** WAVEWATCH III ERROR IN WMGLOW : *** '/       &
               '     CANNOT FIND SOURCE FOR BOUNDARY DATA '/          &
               '     GRID, IX, IY, X, Y:',3I6,2E12.4/)
!
 1021 FORMAT (/' *** WAVEWATCH III ERROR IN WMGLOW : *** '/       &
               '     NONE OF BOUNDARY POINTS CAN BE MAPPED'/          &
               '     READING FROM FILE INSTEAD'/)
!
 1030 FORMAT (/' *** WAVEWATCH III ERROR IN WMGLOW : *** '/       &
               '     RANKS AND RESOLUTIONS INCONSISTENT'/             &
               '        GRID',I4,' RANK',I4,' RESOLUTION :',4E10.3/   &
               '        GRID',I4,' RANK',I4,' RESOLUTION :',4E10.3/)
!
 2000   FORMAT (/' *** WAVEWATCH-III WARNING : BOUNDARY POINT'/  &
                 '     NOT FOUND IN LOWER RANK GRID : ',2F10.3/  &
                 '     POINT SKIPPED '/)
!
 2001   FORMAT (/' *** WAVEWATCH-III WARNING : BOUNDARY POINT'/  &
                 '     NOT FOUND IN LOWER RANK GRID : ',2E10.3/  &
                 '     POINT SKIPPED '/)
!
!/T 9010 FORMAT ( ' TEST WMGLOW : ALL GRIDS INITIALIZED')
!
!/T 9020 FORMAT ( ' TEST WMGLOW : STARTING LOOP OVER GRIDS')
!/T 9021 FORMAT ( ' TEST WMGLOW : I, RANK, NBI :',2I4,I6)
!/T 9022 FORMAT ( '               ',A)
!/T1 9023 FORMAT (' TEST WMGLOW : POINT DATA ')
!/T1 9024 FORMAT (I5,I8,2F6.1,4I5,4F5.2,I3,4I8)
!/T2 9025 FORMAT (' TEST WMGLOW : NBI2S ')
!/T2 9026 FORMAT ('           ',2I4,2X,I8)
!/T 9027 FORMAT (' TEST WMGLOW : NBI, NBI2, RFILE, NBI2G ')
!/T 9028 FORMAT ('               ',2I5,L2,' : ',20I5)
!/T9 9029 FORMAT (' TEST WMGLOW : SOURCE MAP GRID',I3,'   PART',I3)
!
!/T 9030 FORMAT ( ' TEST WMGLOW : GRDLOW DIMENSIONED AT ',I2)
!/T 9031 FORMAT ( ' TEST WMGLOW : GRDLOW :')
!/T 9032 FORMAT ( '                 ',2i4,' : ',20I3)
!
!/T 9040 FORMAT ( ' TEST WMGLOW : GRDHGH DIMENSIONED AT ',I2)
!/T 9041 FORMAT ( ' TEST WMGLOW : GRDHGH :')
!/T 9042 FORMAT ( '                 ',2i4,' : ',20I3)
!/
!/ End of WMGLOW ----------------------------------------------------- /
!/
      END SUBROUTINE WMGLOW

!/ ------------------------------------------------------------------- /
      SUBROUTINE WMGHGH
!/
!/                  +-----------------------------------+
!/                  | WAVEWATCH III           NOAA/NCEP |
!/                  |           H. L. Tolman            |
!/                  |           W. E. Rogers            |
!/                  |                        FORTRAN 90 |
!/                  | Last update :         10-Dec-2014 !
!/                  +-----------------------------------+
!/
!/    28-Dec-2005 : Origination.                        ( version 3.08 )
!/    09-Mar-2006 : Carry over land mask.               ( version 3.09 )
!/    28-Dec-2006 : Simplify NIT for partial comm.      ( version 3.10 )
!/    07-Feb-2007 : Setting FLAGST.                     ( version 3.10 )
!/    20-May-2009 : Linking FLAGST and FLGHG1.          ( version 3.14 )
!/    26-May-2009 : Fix erroneous cyclic updating.      ( version 3.14 )
!/    30-Oct-2009 : Implement run-time grid selection.  ( version 3.14 )
!/                  (W. E. Rogers & T. J. Campbell, NRL)
!/    06-Dec-2010 : Change from GLOBAL (logical) to ICLOSE (integer) to
!/                  specify index closure for a grid.   ( version 3.14 )
!/                  (T. J. Campbell, NRL)
!/    23-Dec-2010 : Fix HPFAC and HQFAC by including the COS(YGRD)
!/                  factor with DXDP and DXDQ terms.    ( version 3.14 )
!/                  (T. J. Campbell, NRL)
!/    07-Jul-2011 : Bug fix for IX bounds with wrapping ( version 3.14+)
!/                  grids (see use of "IDSTLA" below)
!/                  (W. E. Rogers, NRL)
!/    02-Aug-2011 : Adapted for use with irregular      ( version 3.14+)
!/                  grids (W. E. Rogers, NRL)
!/    21-Sep-2012 : Modified to implement SCRIP remap   ( version 4.11 )
!/                  file read and write option
!/                  (K. R. Lind, NRL)
!/    05-Aug-2013 : Change PR2/3 to UQ/UNO in distances.( version 4.12 )
!/    10-Dec-2014 : Add checks for allocate status      ( version 5.04 )
!/
!  1. Purpose :
!
!     Determine relation to higher ranked grids for each grid.
!     Base map set in WMGLOW, supplemental data computed here.
!
!  2. Method :
!
!     Map averaging information for higher ranked grid to lower
!     ranked grid.
!
!  3. Parameters :
!
!  4. Subroutines used :
!
!      Name      Type  Module   Description
!     ----------------------------------------------------------------
!      W3SETO, W3SETG, W3DMO5, WMSETM
!                Subr. W3xDATMD Manage data structures.
!      STRACE    Sur.  W3SERVMD Subroutine tracing.
!      EXTCDE    Sur.    Id.    Program abort.
!     ----------------------------------------------------------------
!
!  5. Called by :
!
!  6. Error messages :
!
!  7. Remarks :
!
!     Regarding the map of distances to the boundary :
!      - v4.00 : the map of distances to the boundary was intentionally 
!                not an accurate characteristic distance. It was felt that 
!                it was more important that it be 'safe' and quick to compute. 
!                An iterative method was used to compute distance by starting 
!                at boundary and working inwards one grid row layer at a time, 
!                incrementing distance by dx etc. until the distance map was
!                filled in. This was characterized as "local increment solution
!                only."
!      - v4.01 : conversion to work with irregular grids. Author could not
!                think of any way to retain "local increment solution" method
!                for situation of irregular grids. Therefore method has been
!                changed to compute accurate distances. New method is also 
!                more transparent and simpler with much less code, thus 
!                easier to modify or debug. It is expected that this method 
!                could be more expensive to compute. Isolated timings were 
!                not performed. Since the iteration step has been removed, 
!                it is hoped that the expense is at least offset somewhat.
!
!     Regarding method of calculating weights :
!              o If SCRIP software is not compiled into WW3 by user 
!                (i.e. if SCRIP switch is not set, then original method
!                (denoted "_OM") will be used.
!              o If SCRIP is activated by user, and all grids are 
!                regular and specified in terms of meters (cartesian), 
!                then WMGHGH will calculate weights using both methods, 
!                and then compare the two, producing an error message
!                if they do not match (built-in regression testing)
!                For more info, see Section 0a below.
!
!     re: Inconsistent RANK vs NBI (warning message) in Section 1.d :
!         This was an error, but has been changed to a warning to allow
!         more flexibility, e.g. having two outer grids with different
!         rank (latter to avoid handling via WMGEQL).
!         Change made July 2016.
!         Old system:
!           * grid rank > 1 and NBI>0 : do computations
!           * grid rank > 1 and NBI=0 : error message
!           * grid rank = 1 and NBI>0 : do nothing
!           * grid rank = 1 and NBI=0 : do nothing
!         New system:
!           * grid rank > 1 and NBI>0 : do computations
!           * grid rank > 1 and NBI=0 : do nothing w/ warning message
!           * grid rank = 1 and NBI>0 : do nothing
!           * grid rank = 1 and NBI=0 : do nothing
!         
!  8. Structure :
!
!     See source code.
!
!  9. Switches :
!
!     !/SHRD Distributed memory approach
!     !/DIST
!
!     !/PRn  propagation scheme.
!
!     !/S    Enable subroutine tracing.
!     !/T    Enable test output.
!     !/T3   Test output for received spectra.
!     !/T4   Test output for sent spectra.
!
! 10. Source code :
!
!/ ------------------------------------------------------------------- /
!
      USE CONSTANTS
      USE W3SERVMD, ONLY: EXTCDE
      USE W3GSRUMD, ONLY: W3DIST
!/S      USE W3SERVMD, ONLY: STRACE
!
      USE W3GDATMD
      USE W3ODATMD
      USE WMMDATMD
!/SCRIP      USE WMSCRPMD
!/SCRIP      USE SCRIP_INTERFACE
!/
      IMPLICIT NONE
!
!/MPI      INCLUDE "mpif.h"
!
!/
!/ ------------------------------------------------------------------- /
!/ Parameter list
!/
!/ ------------------------------------------------------------------- /
!/ Local parameters
!/

! notes re: variable names: During the extension for irregular grids, 
!    some variable were renamed to make the code more readable:
!         JX==> ISRC
!         JY==> JSRC
!         IX==> IDST
!         IY==> JDST
!         grid I ==> grid GDST
!         grid J ==> grid GSRC

      INTEGER                 :: GDST, IJ, IDST, JDST, GSRC, JJ, IB, ISEA,    &
                                 JSEA, IDSTLA, IDSTHA, JDSTLA, JDSTHA,        &
                                 ISRC, JSRC, ISRCL, ISRCH, JSRCL, JSRCH, NIT, &
                                 NRTOT, NROK, JF, JR, NLMAX, ISPROC, ISPRO2,  &
                                 IREC, ISND, ITMP,ILOC
!/SCRIP    INTEGER                 ::  NLMAX_SCRIP

!/DIST      INTEGER                 :: LTAG0
!/MPI       INTEGER                 :: IERR_MPI
!/S      INTEGER, SAVE           :: IENT = 0

      INTEGER, ALLOCATABLE    :: IDSTL(:), IDSTH(:), JDSTL(:), JDSTH(:),      &
                                 MAPTST(:,:),                                 &
                                 I1(:,:), I2(:,:), I3(:), I4(:),              &
                                 INFLND(:,:)
      INTEGER, ALLOCATABLE    :: NX_BEG(:), NX_END(:)
!/MPIBDI INTEGER, ALLOCATABLE    :: NX_SIZE(:), IRQ(:), MSTAT(:,:)
!/MPI INTEGER                 :: IM, NX_REM, TAG, NRQ

      INTEGER, ALLOCATABLE    :: TMPINT_OM(:,:),TMPINT(:,:)
      REAL, ALLOCATABLE       :: TMPRL_OM(:,:) ,TMPRL(:,:)
      REAL, ALLOCATABLE       :: BDIST_OM(:)   ,BDIST(:)
      INTEGER                 :: NR0   , NR1   , NR2   , NRL   , NLOC   
      INTEGER                 :: NR0_OM, NR1_OM, NR2_OM, NRL_OM, NLOC_OM

!/DIST      INTEGER, ALLOCATABLE    :: LTAG(:)

      REAL                    :: FACTOR, STX, STY, STXY, NEWVAL,      &
                                 XL, XH, YL, YH, XA, YA, DXC, JD,     &
                                 WX, WY, WTOT

      LOGICAL                 :: FLGREC

      LOGICAL, ALLOCATABLE    :: GRIDOK(:),                           &
                                 STMASK(:,:), MASKI(:,:), TMPLOG(:)

      INTEGER                 :: JBND,IBND ! counter for boundary points
      REAL                    :: DD  ! distance to boundary point
                                     ! (temporary variable)
      REAL                    :: XDST,YDST
      REAL                    :: XSRC,YSRC
      REAL                    :: WXWY
      INTEGER                 :: NJDST,NIDST,KDST
      INTEGER                 :: NJSRC,NISRC,KSRC
      INTEGER                 :: IPNT,ICOUNT,IPNT2
      INTEGER                 :: DST_GRID_SIZE,ISTOP,JTMP

      REAL                    :: DX_MAX_GDST,DY_MAX_GDST
      REAL                    :: DX_MIN_GSRC,DY_MIN_GSRC

!/SCRIP      TYPE ALLWGT
!/SCRIP        TYPE(WEIGHT_DATA), POINTER :: WGTDATA(:)
!/SCRIP      END TYPE ALLWGT      
!/SCRIP      TYPE(ALLWGT), ALLOCATABLE :: ALLWGTS(:)
!/SCRIP      LOGICAL              :: L_MASTER = .TRUE.
!/SCRIP      LOGICAL              :: L_READ   = .FALSE.
!/SCRIP      LOGICAL              :: L_WRITE = .FALSE.
!/SCRIP      LOGICAL              :: L_STOP  = .FALSE.
!/SCRIPNC      INTEGER              :: IMPROC_ASSIGN
!/SCRIPNC      CHARACTER(LEN=80)    :: interp_file1, interp_file_test
!/SCRIPNC      CHARACTER(LEN=3)     :: cdst, csrc
!/SCRIPNC      LOGICAL, ALLOCATABLE :: LGRDREAD(:,:)
!/SCRIPNC      LOGICAL, ALLOCATABLE :: LGRDWRITE(:,:)
!/SCRIPNC      INTEGER              :: NGRDRANK(2)

      LOGICAL                 :: LSCRIP=.FALSE.      ! true if SCRIP switch is set,
                                                     ! indicates that SCRIP code has
                                                     ! been compiled into WW3 
      LOGICAL                 :: LSCRIPNC=.FALSE.    ! true if SCRIPNC switch is set,
                                                     ! indicates that SCRIP code has
                                                     ! been compiled with netCDF 
                                                     ! into WW3 
      LOGICAL                 :: T38=.FALSE.         ! true if T38 switch is set. 
                                                     ! This logical is necessary 
                                                     ! since it isn't possible to 
                                                     ! have two switches disabling 
                                                     ! the same line of code.
      LOGICAL                 :: ALL_REGULAR=.TRUE.  ! true if all grids are 
                                                     ! regular grids
      LOGICAL                 :: DO_CHECKING=.FALSE. ! true if we will be 
                                                     ! checking "old method" of
                                                     ! computing weights vs. 
                                                     ! SCRIP method of computing
                                                     ! weights.
      LOGICAL                 :: OLD_METHOD=.FALSE.  ! true if we will compute
                                                     ! using "old method" (does
                                                     ! not necessarily mean 
                                                     ! that this solution is
                                                     ! utilized)
      LOGICAL                 :: LMPIBDI=.FALSE.     ! true if MPIBDI switch is set
      LOGICAL                 :: CALLED_SCRIP=.FALSE.! true if SCRIP has been 
                                                     ! called for this processor


      INTEGER  :: ITRI, IM1, IM2, IT, JT, IsFirst
      REAL :: DIST_MIN, DIST_MAX, eDist

!/T      CHARACTER(LEN=1), ALLOCATABLE :: MAPST(:,:)
!/
!/T38      CHARACTER (LEN=10) :: CDATE_TIME(3)
!/T38      INTEGER            :: DATE_TIME(8)
!/T38      INTEGER            :: ELAPSED_TIME, BEG_TIME(10), END_TIME
!/T38      INTEGER            :: NMYOUT=42
!/T38      CHARACTER (LEN=14) :: CMYOUT="myout00000.lis"
!/T38      CHARACTER (LEN=5)  :: CRANK

!/T38      WRITE(CRANK, "(I5.5)") IMPROC-1
!/T38      CMYOUT(6:10) = CRANK(1:5)
!/T38      OPEN (NMYOUT, FILE=CMYOUT, STATUS="REPLACE")
!/S      CALL STRACE (IENT, 'WMGHGH')
!
!/MPI    CALL MPI_BARRIER(MPI_COMM_WORLD, IERR_MPI)
!/T38         CALL DATE_AND_TIME ( CDATE_TIME(1), CDATE_TIME(2), CDATE_TIME(3), DATE_TIME)
!/T38         BEG_TIME(1) = ((DATE_TIME(5)*60 + DATE_TIME(6))*60 + DATE_TIME(7))*1000 + DATE_TIME(8)
!/T38         WRITE(NMYOUT,*) "WMGHGH: START: 0 MSEC"


! -------------------------------------------------------------------- /
! 0.  Initializations / tests
!
      IF ( .NOT. ALLOCATED(GRDHGH) ) THEN
         IF ( IMPROC.EQ.NMPERR ) WRITE(MDSE,1000)
         CALL EXTCDE (1000)
      END IF

!/MPIBDI     LMPIBDI=.TRUE.
!/SCRIP      IF (IMPROC .EQ. 1) THEN
!/SCRIP         L_MASTER = .TRUE.
!/SCRIP         L_WRITE  = .TRUE.
!/SCRIP      ELSE
!/SCRIP         L_MASTER = .FALSE.
!/SCRIP         L_WRITE  = .FALSE.
!/SCRIP      ENDIF
!/SCRIPNC      INQUIRE(FILE="SCRIP_STOP", EXIST=L_STOP)
!/SCRIPNC      IMPROC_ASSIGN = 1
!
!KRL  Allocate helper arrays to enable bottleneck loop parallelization
      ALLOCATE ( NX_BEG(NMPROC), NX_END(NMPROC), STAT=ISTAT )
      CHECK_ALLOC_STATUS ( ISTAT )
!/MPIBDI      ALLOCATE ( NX_SIZE(NMPROC), IRQ(2*NMPROC), &
!/MPIBDI                 MSTAT(MPI_STATUS_SIZE,2*NMPROC), STAT=ISTAT )
!/MPIBDI      CHECK_ALLOC_STATUS ( ISTAT )
!
!!HT:
!!HT: Set up and initialize storage data structures ....
!!HT:
!/T38      CALL DATE_AND_TIME ( CDATE_TIME(1), CDATE_TIME(2), CDATE_TIME(3), DATE_TIME)
!/T38      BEG_TIME(2) = ((DATE_TIME(5)*60 + DATE_TIME(6))*60 + DATE_TIME(7))*1000 + DATE_TIME(8)
      DO GDST=1, NRGRD
         DO GSRC=1, NRGRD
            IF ( HGSTGE(GDST,GSRC)%INIT ) THEN
               IF ( HGSTGE(GDST,GSRC)%NREC .NE. 0 ) THEN
                   DEALLOCATE (                                         &
                     HGSTGE(GDST,GSRC)%LJSEA , HGSTGE(GDST,GSRC)%NRAVG, &
                     HGSTGE(GDST,GSRC)%IMPSRC, HGSTGE(GDST,GSRC)%ITAG , &
                     HGSTGE(GDST,GSRC)%WGTH  , HGSTGE(GDST,GSRC)%SHGH , &
                     STAT=ISTAT )
                   CHECK_DEALLOC_STATUS ( ISTAT )
                 END IF
               IF ( HGSTGE(GDST,GSRC)%NSND .NE. 0 ) THEN
                   DEALLOCATE (                                         &
                     HGSTGE(GDST,GSRC)%ISEND ,                          &
                     STAT=ISTAT )
                   CHECK_DEALLOC_STATUS ( ISTAT )
                 END IF
               HGSTGE(GDST,GSRC)%NTOT = 0
               HGSTGE(GDST,GSRC)%NREC = 0
               HGSTGE(GDST,GSRC)%NRC1 = 0
               HGSTGE(GDST,GSRC)%NSND = 0
               HGSTGE(GDST,GSRC)%NSN1 = 0
               HGSTGE(GDST,GSRC)%NSMX = 0
               HGSTGE(GDST,GSRC)%INIT = .FALSE.
            END IF
         END DO
      END DO
      GDST=-999 ! unset grid
      GSRC=-999 ! unset grid

!/T38      CALL DATE_AND_TIME (CDATE_TIME(1), CDATE_TIME(2), CDATE_TIME(3), DATE_TIME)
!/T38      END_TIME = ((DATE_TIME(5)*60 + DATE_TIME(6))*60 + DATE_TIME(7))*1000 + DATE_TIME(8)
!/T38      ELAPSED_TIME = END_TIME - BEG_TIME(2)
!/T38      WRITE(NMYOUT,*) "WMGHGH, LOOP 1 TOOK ", ELAPSED_TIME, " MSEC"

! -------------------------------------------------------------------- /
! 0.a Plan future behavior by setting logical variables.

!/SCRIP LSCRIP=.TRUE. 
!/SCRIPNC LSCRIPNC=.TRUE. 
!/T38   T38=.TRUE.

      DO GDST=1, NRGRD
         IF ( GRIDS(GDST)%GTYPE .NE. RLGTYPE ) THEN
            ALL_REGULAR=.FALSE.
         END IF
      END DO

! Notes re: FLAGLL case: Old method calculates overlap area based on deg lat
!       and deg lon. New method (SCRIP) calculates overlap area based on real
!       distances. Therefore weights will not match for FLAGLL case, so we 
!       do not perform checking for FLAGLL case. 

      IF ( (.NOT.FLAGLL) .AND. ALL_REGULAR .AND. LSCRIP ) THEN
         IF ( IMPROC.EQ.NMPERR ) &
         WRITE (MDSE,'(/2A)')'We will check SCRIP calculations ', & 
                    'against old method of calculating weights.'
         DO_CHECKING=.TRUE.
      END IF

      IF (DO_CHECKING .OR. (.NOT.LSCRIP)) OLD_METHOD=.TRUE.

! -------------------------------------------------------------------- /
! 0.b Check solution method

      IF ( (.NOT.LSCRIP) .AND. (.NOT.ALL_REGULAR) .AND. &
                                      (NRGRD.GT.1) ) THEN
         IF ( IMPROC.EQ.NMPERR ) &
              WRITE (MDSE,'(/3A)') ' *** ERROR WMGHGH: ', &
              'IRREGULAR or UNSTRUCTURED grid detected: this requires ', &
              'SCRIP switch.'
         CALL EXTCDE ( 999 )
      END IF
      
!
! -------------------------------------------------------------------- /
! 1.  Set boundary distance maps
! 1.a Check if needed
!
!!HT: FLGBDI is a flag set in WMMDATMD to .FALSE. and is used to identify
!!HT:        if the boundary distance maps have been initialized 
!!HT:
!!HT: For each individual grid a map is generated identifying the distance
!!HT: to open boundaries (MAPBDI, saved in structure MDATA in WMMDATMD).
!!HT: This map is used later to choose if more that 1 high-res grids
!!HT: could provide data to a low-res grid. The high-res grid with data
!!HT: furthest away from its own open boundary will be used.

!/SCRIPNC      IF (.NOT. L_STOP) THEN   ! Do not need MAPBDI if going to stop after generating mappings
      IF ( .NOT. FLGBDI ) THEN
!
         IF ( FLAGLL ) THEN
            FACTOR = RADIUS * DERA
!notes: was FACTOR = RADIUS / 360. (bug fix)
         ELSE
            FACTOR = 1.
         END IF
!
!/T          WRITE (MDST,9010)
!
! 1.b Loop over grids
!
!/T38         CALL DATE_AND_TIME ( CDATE_TIME(1), CDATE_TIME(2), CDATE_TIME(3), DATE_TIME)
!/T38         BEG_TIME(3) = ((DATE_TIME(5)*60 + DATE_TIME(6))*60 + DATE_TIME(7))*1000 + DATE_TIME(8)
!/T38         ELAPSED_TIME = BEG_TIME(3) - BEG_TIME(1)
!/T38         WRITE(NMYOUT,*) "WMGHGH, BEGINNING BOTTLENECK LOOP AT ", ELAPSED_TIME, " MSEC"
         DO GDST=1, NRGRD

!/T38       IF(IMPROC.EQ.NMPERR)WRITE(MDSE,*)'GDST = ',GDST,' OUT OF ',NRGRD

            CALL W3SETO ( GDST, MDSE, MDST )
            CALL W3SETG ( GDST, MDSE, MDST )
            CALL WMSETM ( GDST, MDSE, MDST )

!            IF ( GTYPE .EQ. UNGTYPE ) THEN
!               IF ( IMPROC.EQ.NMPERR ) &
!                    WRITE (MDSE,'(/2A)') ' *** ERROR WMGHGH: ', &
!                    'UNSTRUCTURED GRID SUPPORT NOT YET IMPLEMENTED ***'
!               CALL EXTCDE ( 999 )
!            END IF

!
!/T            WRITE (MDST,9011) GDST, GRANK(GDST), NBI
!
! -------------------------------------------------------------------- /
! Inconsistent RANK vs NBI (warning message)
!   This was an error, now changed to a warning (see notes section)
            IF ( (GRANK(GDST).NE.1) .AND. (NBI.EQ.0) ) THEN 
               IF ( IMPROC.EQ.NMPERR ) &
                  WRITE (MDSE,'(/2A)') ' WARNING in WMGHGH:   ', &
                  'NBI=0 AND RANK > 1 '
            END IF

! -------------------------------------------------------------------- /
! 1.c NBI=0, so computations not needed (test output only)
!
            IF ( (NBI.EQ.0) .OR. (GRANK(GDST).EQ.1) ) THEN
! (then do nothing except test output)
!/T                WRITE (MDST,9012)

! -------------------------------------------------------------------- /
! 1.d NBI>0, Generate map with distances to boundary.

!!HT: Initialize MAPBDI
!!HT:   0. for active boundary points
!!HT:  -1. for points that are not considered at all (rescaled for test
!!HT:      output only, only negative value is essentially later).
!!HT:  -2. for points that still need to be processed.

            ELSE

               IF(IMPROC.EQ.NMPERR)WRITE(MDSE,'(A)') &
                   '  Generating map with distances to boundary.'
!  for purposes of screen output, would be useful to wait for other processors to catch up here...(if mpibdi switch used)
               ALLOCATE ( MDATAS(GDST)%MAPBDI(NY,NX), STAT=ISTAT )
               CHECK_ALLOC_STATUS ( ISTAT )
               MAPBDI => MDATAS(GDST)%MAPBDI
!
!KRL           Set up ranges for X. If not MPIBDI, just 1 to NX
               NX_BEG(IMPROC) = 1
               NX_END(IMPROC) = NX
!/MPIBDI               NX_BEG(1) = 1
!/MPIBDI               IF ( NMPROC .EQ. 1 ) THEN
!/MPIBDI                  NX_END(1) = NX
!/MPIBDI                  NX_SIZE(1) = NX
!/MPIBDI               ELSE
!/MPIBDI                  NX_REM = MOD( NX, NMPROC )
!/MPIBDI                  NX_SIZE(1) = NX / NMPROC
!/MPIBDI                  IF (NX_REM .GT. 0) NX_SIZE(1) = NX_SIZE(1) + 1
!/MPIBDI                  NX_END(1) = NX_BEG(1) + NX_SIZE(1) - 1
!/MPIBDI                  DO IM = 2, NMPROC
!/MPIBDI                     NX_BEG(IM) = NX_END(IM-1) + 1
!/MPIBDI                     NX_SIZE(IM) = NX / NMPROC
!/MPIBDI                     IF (IM .LE. NX_REM) NX_SIZE(IM) = NX_SIZE(IM) + 1
!/MPIBDI                     NX_END(IM) = NX_BEG(IM) + NX_SIZE(IM) - 1
!/MPIBDI                     NX_SIZE(IM-1) = NX_SIZE(IM-1) * NY
!/MPIBDI                  END DO
!/MPIBDI                  NX_SIZE(NMPROC) = NX_SIZE(NMPROC) * NY
!/MPIBDI               END IF
!KRL           Setup complete
!
! -------------------------------------------------------------------- /
! Loop to determine MAPBDI
! -------------------------------------------------------------------- /

               IF(IMPROC.EQ.NMPERR)WRITE(MDSE,'(A)') &
                   'Starting MAPBDI 1st loop.'

               DO IDST=NX_BEG(IMPROC), NX_END(IMPROC)
                  IF(MOD(IDST,250).EQ.0)THEN
                     IF(LMPIBDI)THEN
                        WRITE(MDSE,'(4x,3(A,I5))')&
                             'processing column ',IDST,' out of ',NX, &
                             ' on processor ',IMPROC
                     ELSEIF(IMPROC.EQ.NMPERR)THEN
                        WRITE(MDSE,'(4x,2(A,I5))')&
                             'processing column ',IDST,' out of ',NX
                     ENDIF
                  ENDIF
                  DO JDST=1, NY
                     IF ( MAPSTA(JDST,IDST) .EQ. 0 ) THEN ! (excluded point)
                        MAPBDI(JDST,IDST) = -1. / SIG(1) * DTMAX ! new (bug fix)
                     ELSE IF ( ABS(MAPSTA(JDST,IDST)) .EQ. 2 ) THEN 
                        ! (boundary point)
                        MAPBDI(JDST,IDST) =  0.
                     ELSE ! ABS(MAPSTA)=1 (sea point)
                        MAPBDI(JDST,IDST) = 1.0E+10
                     ENDIF ! IF MAPSTA
                  END DO ! DO JDST...
               END DO ! DO IDST...

! -------------------------------------------------------------------- /

               IF(IMPROC.EQ.NMPERR)WRITE(MDSE,'(A)') &
                   'Starting MAPBDI 2nd loop.'

               DO IBND=1,NX
                  IF ( (MOD(IBND,25).EQ.0) .AND. &
                       (IMPROC.EQ.NMPERR) ) THEN
                           WRITE(MDSE,'(4x,2(A,I5))') &
                          'bnd. point ',IBND,' out of ',NX
                  ENDIF
                  DO JBND=1,NY
                     IF ( ABS(MAPSTA(JBND,IBND)) .EQ. 2 ) THEN
                        ! (boundary point)
                        DO IDST=NX_BEG(IMPROC), NX_END(IMPROC)
                           DO JDST=1, NY
                              IF (ABS(MAPSTA(JDST,IDST)) .EQ. 1) THEN
                                 !....find distance to this boundary point.
                                 DD=FACTOR*W3DIST(FLAGLL,XGRD(JDST,IDST), &
                                    YGRD(JDST,IDST),XGRD(JBND,IBND), &
                                    YGRD(JBND,IBND))

! Notes: The origin of "0.58 * GRAV" is to translate from distance (in meters)
! to time (in seconds) required for a wave to travel from the boundary to point
! JDST,IDST based on a specific group velocity 0.58*grav would be the group  
! velocity of a 7.3 s wave in deep water. Significance of T=7.3 s is explained
! in notes by HT below.
                                 
                                 DD=DD/ ( 0.58 * GRAV )
                                 MAPBDI(JDST,IDST)=MIN(MAPBDI(JDST,IDST),DD)
                              ENDIF
                           END DO ! DO JDST
                        END DO ! DO IDST
                     ENDIF ! (if BND point)

                  END DO ! DO JBND
               END DO ! DO IBND

               IF(IMPROC.EQ.NMPERR)WRITE(MDSE,'(A)') &
                   'Finished MAPBDI 2nd loop.'

! -------------------------------------------------------------------- /

!/MPIBDI !KRL          Exchange (Note: for efficiency, post receives first)
!/MPIBDI !KRL          MPI_ALLGATHERV would do this, but freezes for PGI and open_mpi
!/MPIBDI !KRL          This suggests they use blocking SEND/RECV, so this is faster anyway and less implementation-dependent
!/MPIBDI               NRQ = 0
!/MPIBDI               DO IM = 1, NMPROC
!/MPIBDI                  IF ( IM .NE. IMPROC ) THEN
!/MPIBDI                     NRQ = NRQ + 1
!/MPIBDI                     TAG = NMPROC * IM + IMPROC
!/MPIBDI                     CALL MPI_IRECV ( MAPBDI(1,NX_BEG(IM)), NX_SIZE(IM), MPI_REAL, IM - 1, TAG, MPI_COMM_WORLD, &
!/MPIBDI                                      IRQ(NRQ), IERR_MPI )
!/MPIBDI                  END IF
!/MPIBDI               END DO
!/MPIBDI               DO IM = 1, NMPROC
!/MPIBDI                  IF ( IM .NE. IMPROC ) THEN
!/MPIBDI                     NRQ = NRQ + 1
!/MPIBDI                     TAG = NMPROC * IMPROC + IM
!/MPIBDI                     CALL MPI_ISEND( MAPBDI(1,NX_BEG(IMPROC)), NX_SIZE(IMPROC), MPI_REAL, IM - 1, TAG, MPI_COMM_WORLD, &
!/MPIBDI                                     IRQ(NRQ), IERR_MPI )
!/MPIBDI                  END IF
!/MPIBDI               END DO
!/MPIBDI               CALL MPI_WAITALL( NRQ, IRQ, MPI_STATUS_IGNORE, IERR_MPI )
!/MPIBDI               CALL MPI_BARRIER ( MPI_COMM_WORLD, IERR_MPI )

               IF(IMPROC.EQ.NMPERR)WRITE(MDSE,'(A/)') &
               '  Finished generating map with distances to boundary.'

!...notes regarding old method of doing what we just did
!!HT:
!!HT: (1)
!!HT:
!!HT: CHANGE array is used to identify grid points that still need to
!!HT: be processed, and that are adjacent to points that have been 
!!HT: processed. Only those points can be updated in this step of the
!!HT: loop started above here. The two loops below set the CHANGE array.
!!HT:
!!HT: (2)
!!HT:
!!HT: CHANGD identify if more points have been updated
!!HT:
!!HT: STX and STY are partial normalized distances, defined as the
!!HT: physical distance Delta Y ( FACTOR * SY ) and Delta X
!!HT: ( FACTOR * SX * XLAT(JDST) ), devided by the sistance traveled,
!!HT: which is CgMAX * DTMAX. CgMAX is approximately 1.15 * CgDEEP,
!!HT: or 1.15 * 0.5 * C_DEEP = 0.58 * GRAV / SIG(1). Since SIG(1) and
!!HT: DTMAX may vary, these two factors are not included in MAPBDI.
!!HT:
!!HT: This defines MAPBDI similar to an inverse CFL number.
!!HT:
!!HT: (3)
!!HT: 
!!HT: ERROR : Should be CLAT(JDST), not CLATI(JDST) : "STX    = FACTOR * SX * CLATI(JDST) / ( 0.58 * GRAV )"

! 1.e Test output
!
!!HT: Note that SIG(1) and DTMAX are included here so that the map defines
!!HT: how many time steps DTMAX it takes to reach this place.

!/T                WRITE (MDST,9013)
!/T                DO JDST=NY,1 , -1
!/T                  WRITE (MDST,9014) NINT(MAPBDI(JDST,:)*SIG(1)/DTMAX)
!/T                END DO
!
            END IF
         END DO
         FLGBDI = .TRUE.
      END IF
!/SCRIPNC      END IF
!
! -------------------------------------------------------------------- /
! 2.  Data sources for reconcilliation
! 2.a Loop over grids, processing check
!

!!HT: GRDHGH(GDST,0) was set in WMGLOW to identify how many grids may
!!HT: contribute from higher ranks to the present grid (GDST).

      ALLOCATE ( I1(NRGRD,NMPROC), I2(NRGRD,NMPROC),                  &
                 I3(NRGRD), I4(NRGRD), STAT=ISTAT )
      CHECK_ALLOC_STATUS ( ISTAT )

!/DIST      LTAG0  = 0

!/SCRIPNC !    If reading/writing SCRIP files, need to determine in advance which it is to avoid race condition:
!/SCRIPNC !       Processor writing file before other processor can check for it
!/SCRIPNC      NGRDRANK = SHAPE(GRDHGH)
!/SCRIPNC      ALLOCATE( LGRDREAD(NGRDRANK(1)-1, NGRDRANK(2)), STAT=ISTAT )
!/SCRIPNC      CHECK_ALLOC_STATUS ( ISTAT )
!/SCRIPNC      ALLOCATE(LGRDWRITE(NGRDRANK(1)-1, NGRDRANK(2)), STAT=ISTAT )
!/SCRIPNC      CHECK_ALLOC_STATUS ( ISTAT )
!/SCRIPNC      DO GDST=1, NRGRD
!/SCRIPNC         DO JJ = 1, GRDHGH(GDST,0) 
!/SCRIPNC            IF ( GRDHGH(GDST,0) .EQ. 0 ) THEN
!/SCRIPNC !             If no remap, then no file
!/SCRIPNC               LGRDREAD(GDST,JJ)  = .FALSE.
!/SCRIPNC               LGRDWRITE(GDST,JJ) = .FALSE.
!/SCRIPNC            ELSE
!/SCRIPNC               GSRC   = GRDHGH(GDST,JJ)
!/SCRIPNC               INTERP_FILE1 = "rmp_src_to_dst_conserv_xxx_xxx.nc"
!/SCRIPNC               WRITE(CDST, "(I3.3)") GDST
!/SCRIPNC               WRITE(CSRC, "(I3.3)") GSRC
!/SCRIPNC               INTERP_FILE1(24:26) = CSRC
!/SCRIPNC               INTERP_FILE1(28:30) = CDST
!/SCRIPNC               INQUIRE(FILE=INTERP_FILE1, EXIST=L_READ)
!/SCRIPNC !             At this point, file either exists already (L_READ = .TRUE.) or needs to be written
!/SCRIPNC               LGRDREAD(GDST,JJ)  = L_READ
!/SCRIPNC               LGRDWRITE(GDST,JJ) = .NOT. L_READ
!/SCRIPNC            END IF
!/SCRIPNC         END DO
!/SCRIPNC      END DO
!/MPI              IF (LSCRIPNC) CALL MPI_BARRIER(MPI_COMM_WORLD, IERR_MPI)

      LOWRANK_GRID : DO GDST=1, NRGRD

!/T38         CALL DATE_AND_TIME ( CDATE_TIME(1), CDATE_TIME(2), CDATE_TIME(3), DATE_TIME)
!/T38         BEG_TIME(2) = ((DATE_TIME(5)*60 + DATE_TIME(6))*60 + DATE_TIME(7))*1000 + DATE_TIME(8)
!/T38         ELAPSED_TIME = BEG_TIME(2) - BEG_TIME(1)
!/T38         WRITE(NMYOUT,*) "WMGHGH, LOOP LOWRANK_GRID, GDST= ", GDST, " START: ", ELAPSED_TIME, " MSEC"

! Test output
!/T        WRITE (MDST,9020) GDST, GRDHGH(GDST,0)
!/SCRIP    IF ( IMPROC.EQ.NMPERR.AND.T38 )WRITE(MDST,*)'GDST = ',GDST,' OUT OF ',NRGRD

!
         IF ( GRDHGH(GDST,0) .EQ. 0 ) THEN ! no grids of higher rank than this
                                           ! one.
!/T            WRITE (MDST,9021)
         ELSE ! processing required

!
! 2.b Process grid
! 2.b.1 Preparations
!
!!HT: Grid I has higher rank grids covering it, we now set up MAPTST
!!HT:   MAPTST shows from which gid the data is averages.
!!HT:   INFLND inferred land points based on land in high-res grids.
!!HT:
            CALL W3SETO ( GDST, MDSE, MDST )
            CALL W3SETG ( GDST, MDSE, MDST )
            CALL WMSETM ( GDST, MDSE, MDST )

!  W3SETG set ICLOSE for us, and we have determined that there is
!   interaction between high and low rank. So this is a good point
!   to check the closure type.
 
            IF ( ICLOSE .EQ. ICLOSE_TRPL ) THEN
              IF ( IMPROC.EQ.NMPERR ) WRITE(MDSE,*)'SUBROUTINE WMGHGH IS'// &
              ' NOT YET ADAPTED FOR TRIPOLE GRIDS. STOPPING NOW.'
              CALL EXTCDE ( 1 )
            END IF
            
            ALLOCATE ( MAPTST(NY,NX), INFLND(NY,NX), STAT=ISTAT )
            CHECK_ALLOC_STATUS ( ISTAT )
            MAPTST = 0
            INFLND = 0

!################################################################
! Start new block of code: Calculate weights by calling SCRIP interface
!################################################################

! Notes on grid variables:
! GRIDS(GSRC)%{grid variable} (src grid, high rank, high resolution grid)
! GRIDS(GDST)%{grid variable} (dst grid, low rank, low resolution grid)

!   At this point, we are working on a particular low rank (dst) grid.
!   We will save our weight information in the structure "ALLWGTS".
!   For this dst grid, it is possible to have many src grids. That is
!      why we store it this way.
!   First, we ALLOCATE ALLWGTS from 1 up to the largest value of all
!      the possible source grids. This will be referenced as "GSRC"
!      Not every value of GSRC will be filled (e.g. "1" usually isn't filled)
!      but since we are doing this as a derived data type, we are still 
!      efficient in terms of memory usage.
!   Inside SCRIP interface, we have:
!      type weight_data
!         integer (kind=int_kind)              :: n    ! number of weights for
!                                               dst cell, formerly npnts(:)
!         real    (kind=dbl_kind), allocatable :: w(:) ! weights, sized by n, 
!                                               formerly wxwy(:,:)
!         integer (kind=int_kind), allocatable :: k(:) ! source grid cells,
!                                               sized by n, formerly KSRC(:,:)
!      end type weight_data
!   ....
!     type(weight_data), allocatable :: WGTDATA(:)
!   ....
!     ALLOCATE ( WGTDATA(grid2_size), STAT=ISTAT ) ! grid2=destination grid
!     CHECK_ALLOC_STATUS ( ISTAT )

!/SCRIP            NJDST=NY
!/SCRIP            NIDST=NX
!/SCRIP            ALLOCATE ( ALLWGTS(MAXVAL(GRDHGH)),STAT=ISTAT ) 
!/SCRIP            CHECK_ALLOC_STATUS ( ISTAT )

! Next, we loop through the src grids for the dst grid that we are working on.
!/SCRIP            DO JJ=1, GRDHGH(GDST,0) 
!/T38                      CALL DATE_AND_TIME ( CDATE_TIME(1), CDATE_TIME(2), CDATE_TIME(3), DATE_TIME)
!/T38                      BEG_TIME(3) = ((DATE_TIME(5)*60 + DATE_TIME(6))*60 + DATE_TIME(7))*1000 + DATE_TIME(8)
!/T38                      ELAPSED_TIME = BEG_TIME(3) - BEG_TIME(1)
!/T38                      WRITE(NMYOUT,*) "WMGHGH, LOOP JJ= ", JJ, " START: ", ELAPSED_TIME, " MSEC"

!/SCRIP               GSRC   = GRDHGH(GDST,JJ)
!/SCRIP               NISRC=GRIDS(GSRC)%NX
!/SCRIP               NJSRC=GRIDS(GSRC)%NY ! only needed for diagnostics

! Next, we call SCRIP for this src grid.
! Conditions for calling SCRIP are:
! 1) Not using L_STOP: in this case, all processes need all the weight
!    information, so all processes need to call SCRIP for all grid pairs
! OR
! 2) Using L_STOP, writing .nc files and not reading .nc files. With 
!    L_STOP, different processors are doing different things, and so
!    have different settings for L_WRITE. L_READ is the same for all 
!    processors, since it is simply based on whether the file already
!    exists.

!/SCRIPNC               INTERP_FILE1 = "rmp_src_to_dst_conserv_xxx_xxx.nc"
!/SCRIPNC               WRITE(CDST, "(I3.3)") GDST
!/SCRIPNC               WRITE(CSRC, "(I3.3)") GSRC
!/SCRIPNC               INTERP_FILE1(24:26) = CSRC
!/SCRIPNC               INTERP_FILE1(28:30) = CDST
!/SCRIPNC               L_READ = LGRDREAD(GDST, JJ)
!/T38                      CALL DATE_AND_TIME ( CDATE_TIME(1), CDATE_TIME(2), CDATE_TIME(3), DATE_TIME)
!/T38                      BEG_TIME(4) = ((DATE_TIME(5)*60 + DATE_TIME(6))*60 + DATE_TIME(7))*1000 + DATE_TIME(8)
!/T38                      ELAPSED_TIME = BEG_TIME(3) - BEG_TIME(1)
!/T38                      WRITE(NMYOUT,*) "WMGHGH, SCRIP WRAPPER START: ", ELAPSED_TIME, " MSEC"
!/SCRIPNC               IF (L_STOP) L_WRITE = (IMPROC .EQ. IMPROC_ASSIGN)

!/SCRIPNC    IF(L_STOP.AND.L_READ)THEN
!/SCRIPNC    IF ( IMPROC.EQ.NMPERR ) &
!/SCRIPNC    WRITE(MDSE,'(A)')'ERROR: You should either have SCRIP_STOP '// &
!/SCRIPNC                    'or remapping (.nc) files. Not both. We will exit now.'
!/SCRIPNC    CALL EXTCDE (505)
!/SCRIPNC    ENDIF

!/SCRIP      CALLED_SCRIP=.FALSE. ! initialize

!/SCRIPNC               IF ((.NOT. L_STOP) .OR. ((.NOT. L_READ) .AND. L_WRITE)) THEN 
!/SCRIP                   IF (L_STOP) THEN ! we are sending different grids to different processors
!/SCRIP                     WRITE(MDSE,'(A,2(I5),A,I5)')'Calling SCRIP for GSRC,GDST = ', &
!/SCRIP                          GSRC,GDST,' on processor ',IMPROC
!/SCRIP                   ELSEIF(IMPROC.EQ.NMPERR)THEN
!/SCRIP                     WRITE(MDSE,'(A,2(I5))')'Calling SCRIP interface for GSRC,GDST = ', &
!/SCRIP                          GSRC,GDST
!/SCRIP                   ENDIF
!/SCRIP                   CALL scrip_wrapper (GSRC, GDST,         &
!/SCRIP                     GRIDS(GSRC)%MAPSTA,GRIDS(GSRC)%MAPST2,FLAGLL,      &
!/SCRIP                     GRIDS(GSRC)%GRIDSHIFT,L_WRITE,L_READ,T38)
!/SCRIP                   CALLED_SCRIP=.TRUE.
!/SCRIPNC               END IF
!/SCRIP                 CALL FLUSH(MDSE)
!/SCRIPNC               IF (L_STOP) THEN
!/SCRIPNC                  IF (.NOT. L_READ) THEN
!/SCRIPNC                     IMPROC_ASSIGN = IMPROC_ASSIGN + 1
!/SCRIPNC                     IF (IMPROC_ASSIGN .GT. NMPROC) IMPROC_ASSIGN = 1
!/SCRIPNC                     IF(CALLED_SCRIP)THEN ! we called scrip_wrapper, so we need  
!/SCRIPNC                                          ! to deallocate before leaving               
!/SCRIPNC                       DST_GRID_SIZE=NIDST*NJDST
!/SCRIPNC                       DO KDST=1,DST_GRID_SIZE
!/SCRIPNC                         DEALLOCATE(WGTDATA(KDST)%W, STAT=ISTAT )
!/SCRIPNC                         CHECK_DEALLOC_STATUS ( ISTAT )
!/SCRIPNC                         DEALLOCATE(WGTDATA(KDST)%K, STAT=ISTAT )
!/SCRIPNC                         CHECK_DEALLOC_STATUS ( ISTAT )
!/SCRIPNC                       END DO
!/SCRIPNC                       DEALLOCATE(WGTDATA, STAT=ISTAT )
!/SCRIPNC                       CHECK_DEALLOC_STATUS ( ISTAT )
!/SCRIPNC                     END IF
!/SCRIPNC                     CYCLE ! cycle out of this loop :  DO JJ=1, GRDHGH(GDST,0) 
!/SCRIPNC                  END IF
!/SCRIPNC               END IF
!/T38                      CALL DATE_AND_TIME (CDATE_TIME(1), CDATE_TIME(2), CDATE_TIME(3), DATE_TIME)
!/T38                      END_TIME = ((DATE_TIME(5)*60 + DATE_TIME(6))*60 + DATE_TIME(7))*1000 + DATE_TIME(8)
!/T38                      ELAPSED_TIME = END_TIME - BEG_TIME(4)
!/T38                      WRITE(NMYOUT,*) "WMGHGH, SCRIP WRAPPER, GSRC= ", GSRC, " TOOK ", ELAPSED_TIME, " MSEC"

!/SCRIP    IF(.NOT.CALLED_SCRIP)THEN ! we should not be here, since we need
!/SCRIP                              ! WGTDATA(KDST)%N which is created by SCRIP
!/SCRIP    IF ( IMPROC.EQ.NMPERR ) WRITE(MDSE,'(A)')'ERROR: we '// &
!/SCRIP                    'should have cycled out by now. We will exit now.'
!/SCRIP    CALL EXTCDE (506)
!/SCRIP    ENDIF

! SCRIP has now created the data strucure "WGTDATA" and stored the weights 
! in it. However, this is only for the present src grid. We want to store the
! data for all the src grids. Thus, we use a new data structure of type
! "ALLWGT" to store this data. First though, we need to ALLOCATE it:
! (note: "k" is equivalent to isea, but includes *all* points)

!/SCRIP               DST_GRID_SIZE=NIDST*NJDST
!/SCRIP               ALLOCATE(ALLWGTS(GSRC)%WGTDATA(DST_GRID_SIZE),STAT=ISTAT)
!/SCRIP               CHECK_ALLOC_STATUS ( ISTAT )
!/SCRIP               DO KDST=1,DST_GRID_SIZE
!/SCRIP                  ALLOCATE(ALLWGTS(GSRC)%WGTDATA(KDST) &
!/SCRIP                           %W(WGTDATA(KDST)%N),STAT=ISTAT)
!/SCRIP                  CHECK_ALLOC_STATUS ( ISTAT )
!/SCRIP                  ALLOCATE(ALLWGTS(GSRC)%WGTDATA(KDST) &
!/SCRIP                           %K(WGTDATA(KDST)%N),STAT=ISTAT)
!/SCRIP                  CHECK_ALLOC_STATUS ( ISTAT )
!/SCRIP               END DO

! Now that we have it allocated, we can just copy WGTDATA into ALLWGTS

! Notes re: short and long way to do this:
! pgf90 on IBM Opteron, gfortran, g95, xlf, all tested ok with "short method"
! pgf90 on our linux workstations (Intel) requires the "long method" 
! (possible compiler bug)
! ALLWGTS(GSRC)%WGTDATA = WGTDATA                               !short method

! BEGIN long method for filling derived data type "ALLWGTS"

!/SCRIP               DO KDST=1,DST_GRID_SIZE
!/SCRIP                  ALLWGTS(GSRC)%WGTDATA(KDST)%N=WGTDATA(KDST)%N
!/SCRIP                  ALLWGTS(GSRC)%WGTDATA(KDST)%NR0=WGTDATA(KDST)%NR0
!/SCRIP                  ALLWGTS(GSRC)%WGTDATA(KDST)%NR2=WGTDATA(KDST)%NR2
!/SCRIP                  ALLWGTS(GSRC)%WGTDATA(KDST)%NRL=WGTDATA(KDST)%NRL
!/SCRIP                  DO IPNT=1,WGTDATA(KDST)%N
!/SCRIP                     ALLWGTS(GSRC)%WGTDATA(KDST)%W(IPNT) &
!/SCRIP                      =WGTDATA(KDST)%W(IPNT)
!/SCRIP                     ALLWGTS(GSRC)%WGTDATA(KDST)%K(IPNT) &
!/SCRIP                      =WGTDATA(KDST)%K(IPNT)
!/SCRIP                  END DO
!/SCRIP               END DO

! END long method for filling derived data type "ALLWGTS"

! We're done with WGTDATA, so we can DEALLOCATE it. This is important,
! since it will be allocated again the next time SCRIP is called.

!/SCRIP               DO KDST=1,DST_GRID_SIZE
!/SCRIP                  DEALLOCATE(WGTDATA(KDST)%W, STAT=ISTAT )
!/SCRIP                  CHECK_DEALLOC_STATUS ( ISTAT )
!/SCRIP                  DEALLOCATE(WGTDATA(KDST)%K, STAT=ISTAT )
!/SCRIP                  CHECK_DEALLOC_STATUS ( ISTAT )
!/SCRIP               END DO
!/SCRIP               DEALLOCATE(WGTDATA, STAT=ISTAT )
!/SCRIP               CHECK_DEALLOC_STATUS ( ISTAT )

! Here's a "test output" block of code to demonstrate how the weights can
! be called up from ALLWGTS...and to verify that the data is stored properly.
! (again note that "k" is equivalent to isea, but includes *all* points)

!/SCRIP               IF(T38)THEN
!/SCRIP                  WRITE(MDST,'(/2A)')'      XDST       YDST     ', & 
!/SCRIP                  '     XSRC          YSRC          WXWY'
!/SCRIP                  DO JDST=1,NJDST
!/SCRIP                     DO IDST=1,NIDST
!/SCRIP                        KDST=(JDST-1)*NIDST+IDST
!/SCRIP                        XDST=GRIDS(GDST)%XGRD(JDST,IDST)
!/SCRIP                        YDST=GRIDS(GDST)%YGRD(JDST,IDST)
!/SCRIP                        DO IPNT=1,ALLWGTS(GSRC)%WGTDATA(KDST)%N
!/SCRIP                           KSRC=ALLWGTS(GSRC)%WGTDATA(KDST)%K(IPNT)
!/SCRIP                           JSRC=INT((KSRC-1)/NISRC)+1
!/SCRIP                           ISRC=KSRC-(JSRC-1)*NISRC
!/SCRIP                           XSRC=GRIDS(GSRC)%XGRD(JSRC,ISRC)
!/SCRIP                           YSRC=GRIDS(GSRC)%YGRD(JSRC,ISRC)
!/SCRIP                           WXWY=ALLWGTS(GSRC)%WGTDATA(KDST)%W(IPNT)
!/SCRIP                           WRITE(MDST,'(5(1X,F12.5))')XDST,YDST,XSRC, &
!/SCRIP                           YSRC,WXWY
!/SCRIP                        END DO
!/SCRIP                     END DO
!/SCRIP                  END DO !  DO JDST=1,NJDST
!/SCRIP               ENDIF ! IF(T38)THEN

!/T38                      CALL DATE_AND_TIME (CDATE_TIME(1), CDATE_TIME(2), CDATE_TIME(3), DATE_TIME)
!/T38                      END_TIME = ((DATE_TIME(5)*60 + DATE_TIME(6))*60 + DATE_TIME(7))*1000 + DATE_TIME(8)
!/T38                      ELAPSED_TIME = END_TIME - BEG_TIME(3)
!/T38                      WRITE(NMYOUT,*) "WMGHGH, LOOP JJ, GSRC= ", GSRC, " TOOK ", ELAPSED_TIME, " MSEC"
!/SCRIP            END DO   !            DO JJ=1, GRDHGH(GDST,0) 
!/SCRIPNC            IF (L_STOP) THEN
!/SCRIPNC                DEALLOCATE ( MAPTST, INFLND, STAT=ISTAT )
!/SCRIPNC                CHECK_DEALLOC_STATUS ( ISTAT )
!/SCRIPNC              END IF
!/SCRIPNC            IF (L_STOP) CYCLE ! cycle out of LOWRANK_GRID loop
!/SCRIP            GSRC   = -999 ! unset grid

!################################################################
! End new block of code: Calculate weights by calling SCRIP interface
!################################################################

! 2.b.2 Find points used for boundary data in higher ranked grids
!
!!HT: These points are marked in MAPTST as negative values to assure
!!HT: that the grid poits used for boundary data are not getting 
!!HT: averaged values from high-reswolution grids as that will result
!!HT: in cyclic, possibly non-conservative updating.
!!HT:
!!HT: NBI2S has all necessary data set in WMGLOW as called before WMGHGH.
!!HT:
!!HT: JJ loop goes over grids that reviously have been identified as 
!!HT: getting data from the grid presently cousidered.
!
! notes: The purpose of this is to identify points
!        that should not be used in the averaging procedure. It is 
!        related to statement in Tolman (OM, 2008):  "Second, Eq (7) is not 
!        applied to grid points in the low resolution grid that contribute 
!        to boundary data for the high resolution grid. This avoids cyclic
!        updating of data between grids. 

! notes:   GRDHGH(GDST,0) is number of grids of higher rank than the present
!                         grid (GDST)
!          GRDHGH(GDST,1...etc.) is the grid number

! notes: Setting MAPTST=negative here is probably overkill, since it means
!        we will not have weights for this point. However, to change this,
!        we would need a new variable to use in its place, since we need
!        to mark the point for use in STMASK determination.

            DO JJ=1, GRDHGH(GDST,0) 
               GSRC   = GRDHGH(GDST,JJ)
               DO IB=1, SIZE(MDATAS(GSRC)%NBI2S(:,1))
                  IF ( MDATAS(GSRC)%NBI2S(IB,1) .EQ. GDST ) THEN
[...]
          EQSTGE(I,I)%NTOT = STORES(I,J)%NFIN
!
          IF ( EQSTGE(I,J)%NREC .NE. 0 ) THEN
              DEALLOCATE ( EQSTGE(I,J)%ISEA , EQSTGE(I,J)%JSEA ,      &
                           EQSTGE(I,J)%WGHT , EQSTGE(I,J)%SEQL ,      &
                           EQSTGE(I,J)%NAVG , EQSTGE(I,J)%WAVG ,      &
                           EQSTGE(I,J)%RIP  , EQSTGE(I,J)%RTG, STAT=ISTAT )
              CHECK_DEALLOC_STATUS ( ISTAT )
              EQSTGE(I,J)%NREC   = 0
              EQSTGE(I,J)%NAVMAX = 1
!/T              WRITE (MDST,9042) I, J
            END IF
!
          IF ( NREC(J) .GT. 0 ) THEN
              NA     =  MAXVAL ( STORES(I,J)%NAV(1:STORES(I,J)%NTOT) )
              EQSTGE(I,J)%NAVMAX = NA
              ALLOCATE ( EQSTGE(I,J)%ISEA(NREC(J))  ,                 &
                         EQSTGE(I,J)%JSEA(NREC(J))  ,                 &
                         EQSTGE(I,J)%WGHT(NREC(J))  ,                 &
                         EQSTGE(I,J)%SEQL(SGRDS(J)%NSPEC,NREC(J),NA), &
                         EQSTGE(I,J)%NAVG(NREC(J))  ,                 &
                         EQSTGE(I,J)%WAVG(NREC(J),NA),                &
                         EQSTGE(I,J)%RIP(NREC(J),NA),                 &
                         EQSTGE(I,J)%RTG(NREC(J),NA), STAT=ISTAT )
              CHECK_ALLOC_STATUS ( ISTAT )
              EQSTGE(I,J)%NREC = NREC(J)
!/T              WRITE (MDST,9043) I, J, NREC(J), NA
            END IF
!
          IF ( EQSTGE(I,J)%NSND .NE. 0 ) THEN
              DEALLOCATE ( EQSTGE(I,J)%SIS , EQSTGE(I,J)%SJS ,        &
                           EQSTGE(I,J)%SI1 , EQSTGE(I,J)%SI2 ,        &
                           EQSTGE(I,J)%SIP , EQSTGE(I,J)%STG, STAT=ISTAT )
              CHECK_DEALLOC_STATUS ( ISTAT )
              EQSTGE(I,J)%NSND = 0
!/T              WRITE (MDST,9044) I, J
            END IF
!
          IF ( NSND(J) .GT. 0 ) THEN
              ALLOCATE ( EQSTGE(I,J)%SIS(NSND(J)) ,                   &
                         EQSTGE(I,J)%SJS(NSND(J)) ,                   &
                         EQSTGE(I,J)%SI1(NSND(J)) ,                   &
                         EQSTGE(I,J)%SI2(NSND(J)) ,                   &
                         EQSTGE(I,J)%SIP(NSND(J)) ,                   &
                         EQSTGE(I,J)%STG(NSND(J)), STAT=ISTAT )
              CHECK_ALLOC_STATUS ( ISTAT )
              EQSTGE(I,J)%NSND = NSND(J)
!/T              WRITE (MDST,9045) I, J, NSND(J)
            END IF
!
          END DO
!
! 4.b   Store data in EQSTGE
! 4.b.1 Grid I (JSEA and weight only)
!
        IF ( EQSTGE(I,I)%NREC .GT. 0 ) THEN
            NTL    = 0
            DO IX=1, NX
              DO IY=1, NY
                IF ( MAP3D(IY,IX,0) .EQ. 0 ) CYCLE
                IF ( MAP3D(IY,IX,-4) .NE. IMPROC ) CYCLE
                NTL    = NTL + 1
                EQSTGE(I,I)%ISEA(NTL) = MAP3D(IY,IX,-2)
                EQSTGE(I,I)%JSEA(NTL) = MAP3D(IY,IX,-3)
                EQSTGE(I,I)%WGHT(NTL) = WGT3D(IY,IX,0)
                END DO
              END DO
          END IF
!
! 4.b.2 All other grids, info for receiving
!
        DO J=1, NRGRD 
          IF ( .NOT. SHRANK(I,J) ) CYCLE
          IF ( EQSTGE(I,J)%NREC .EQ. 0 ) CYCLE
          NTL    = 0
!
          DO JJ=1, STORES(I,J)%NTOT
            IX     = STORES(I,J)%IX(JJ)
            IY     = STORES(I,J)%IY(JJ)
            IF ( MAP3D(IY,IX,J) .EQ. 0 ) CYCLE
            IF ( MAP3D(IY,IX,-4) .NE. IMPROC ) CYCLE
            NTL    = NTL + 1
            EQSTGE(I,J)%ISEA(NTL) = MAP3D(IY,IX,-2)
            EQSTGE(I,J)%JSEA(NTL) = MAP3D(IY,IX,-3)
            EQSTGE(I,J)%WGHT(NTL) = WGT3D(IY,IX,J)
            NA     = STORES(I,J)%NAV(JJ)
            EQSTGE(I,J)%NAVG(NTL) = NA
            EQSTGE(I,J)%WAVG(NTL,1:NA) = STORES(I,J)%AWG(JJ,1:NA)
            EQSTGE(I,J)%RIP (NTL,1:NA) = STORES(I,J)%IPS(JJ,1:NA)
            EQSTGE(I,J)%RTG (NTL,1:NA) = STORES(I,J)%ITG(JJ,1:NA)
            END DO
!
          END DO
!
! 4.b.3 All other grids, info for sending
!
        DO J=1, NRGRD 
          IF ( .NOT. SHRANK(I,J) ) CYCLE
          IF ( EQSTGE(I,J)%NSND .EQ. 0 ) CYCLE
          NTPP   = 0
          NTL    = 0
!
          DO JJ=1, STORES(I,J)%NTOT
            IX     = STORES(I,J)%IX(JJ)
            IY     = STORES(I,J)%IY(JJ)
            IF ( MAP3D(IY,IX,J) .NE. 0 ) THEN
                NTPP(MAP3D(IY,IX,-4)) = NTPP(MAP3D(IY,IX,-4)) + 1
                DO NA=1, STORES(I,J)%NAV(JJ)
                  IF ( STORES(I,J)%IPS(JJ,NA) .EQ. IMPROC ) THEN
                      NTL    = NTL + 1
                      EQSTGE(I,J)%SIS(NTL) = STORES(I,J)%ISS(JJ,NA)
                      EQSTGE(I,J)%SJS(NTL) = STORES(I,J)%JSS(JJ,NA)
                      EQSTGE(I,J)%SI1(NTL) = NTPP(MAP3D(IY,IX,-4))
                      EQSTGE(I,J)%SI2(NTL) = NA
                      EQSTGE(I,J)%SIP(NTL) = MAP3D(IY,IX,-4)
                      EQSTGE(I,J)%STG(NTL) = STORES(I,J)%ITG(JJ,NA)
                    END IF
                  END DO
              END IF
            END DO
!
          END DO
!
! 4.c Detailed test output
!
!/T5        DSTR   = '                  '
!
!/T5        IF ( EQSTGE(I,I)%NREC .EQ. 0 ) THEN
!/T5            WRITE (MDST,9140) I
!/T5          ELSE
!/T5            WRITE (MDST,9141) I
!/T5            NA     = 0
!/T5            DO J=1, NRGRD
!/T5              IF ( I.EQ.J .OR. EQSTGE(I,J)%NREC.EQ.0 ) CYCLE
!/T5              NA     = NA + 1
!/T5              NSND(NA) = J
!/T5              END DO
!/T5            WRITE (MDST,9142) NSND(1:NA)
!/T5            WRITE (MDST,9143)
!/T5            ALLOCATE ( TSTR(NA), STAT=ISTAT )
!/T5            CHECK_ALLOC_STATUS ( ISTAT )
!/T5            DO JJ=1, EQSTGE(I,I)%NREC
!/T5              DO NG=1, NA
!/T5                J      = NSND(NG)
!/T5                TSTR(NG) = DSTR
!/T5                DO NTL=1, EQSTGE(I,J)%NREC
!/T5                    IF ( EQSTGE(I,I)%ISEA(JJ) .EQ.                &
!/T5                         EQSTGE(I,J)%ISEA(NTL) ) THEN
!/T5                        WRITE (TSTR(NG),9144) NTL,                &
!/T5                                    EQSTGE(I,J)%WGHT(NTL),        &
!/T5                                    EQSTGE(I,J)%NAVG(NTL)
!/T5                        EXIT
!/T5                      END IF
!/T5                  END DO
!/T5                END DO
!/T5              WRITE (MDST,9145) JJ, EQSTGE(I,I)%ISEA(JJ),         &
!/T5                                    EQSTGE(I,I)%JSEA(JJ),         &
!/T5                                    EQSTGE(I,I)%WGHT(JJ),         &
!/T5                                    TSTR
!/T5              END DO
!/T5            DEALLOCATE ( TSTR, STAT=ISTAT )
!/T5            CHECK_DEALLOC_STATUS ( ISTAT )
!/T5          END IF
!
!/T5        DO J=1, NRGRD
!/T5          IF ( I.EQ.J .OR. EQSTGE(I,J)%NREC.EQ.0 ) CYCLE
!/T5          WRITE (MDST,9146) J
!/T5          DO JJ=1, EQSTGE(I,J)%NREC
!/T5            WRITE (MDST,9147) JJ, EQSTGE(I,J)%NAVG(JJ),           &
!/T5                            ( EQSTGE(I,J)%WAVG(JJ,NA),            &
!/T5                              EQSTGE(I,J)%RIP (JJ,NA),            &
!/T5                              EQSTGE(I,J)%RTG (JJ,NA),            &
!/T5                                  NA=1, EQSTGE(I,J)%NAVG(JJ) )
!/T5            END DO
!/T5          END DO
!
!/T6        DO J=1, NRGRD
!/T6          IF ( I .EQ. J ) CYCLE
!/T6          IF ( EQSTGE(I,J)%NSND .EQ. 0 ) THEN
!/T6              WRITE (MDST,9240) J
!/T6            ELSE
!/T6              WRITE (MDST,9241) J
!/T6              DO JJ=1, EQSTGE(I,J)%NSND
!/T6                WRITE (MDST,9242) JJ, EQSTGE(I,J)%SIS(JJ),        &
!/T6                                      EQSTGE(I,J)%SJS(JJ),        &
!/T6                                      EQSTGE(I,J)%SI1(JJ),        &
!/T6                                      EQSTGE(I,J)%SI2(JJ),        &
!/T6                                      EQSTGE(I,J)%SIP(JJ),        &
!/T6                                      EQSTGE(I,J)%STG(JJ)
!/T6                END DO
!/T6            END IF
!/T6          END DO
!
! ... End of loop started in 3.a
!
        DEALLOCATE ( MAP3D, WGT3D, STAT=ISTAT )
        CHECK_DEALLOC_STATUS ( ISTAT )
        END DO
!
! -------------------------------------------------------------------- /
! 5.  Generate GRDEQL
! 5.a Size of array
!
      NREC   = 0
!
      DO I=1, NRGRD
        DO J=1, NRGRD
          IF ( I.EQ.J .OR. STORES(I,J)%NFIN.EQ.0 ) CYCLE
          NREC(I) = NREC(I) + 1
          END DO
        END DO
!
      NA     = MAXVAL(NREC)
      ALLOCATE ( GRDEQL(NRGRD,0:NA), STAT=ISTAT )
      CHECK_ALLOC_STATUS ( ISTAT )
      GRDEQL = 0
!
!/T      WRITE (MDST,9050) NA
!
! 5.b Fill array
!
      DO I=1, NRGRD
        GRDEQL(I,0) = NREC(I)
        JJ          = 0
        DO J=1, NRGRD
          IF ( I.EQ.J .OR. STORES(I,J)%NFIN.EQ.0 ) CYCLE
          JJ           = JJ + 1
          GRDEQL(I,JJ) = J
          END DO
        END DO
!
!/T      WRITE (MDST,9051)
!/T      DO I=1, NRGRD
!/T        WRITE (MDST,9052) I, GRDEQL(I,0:GRDEQL(I,0))
!/T        END DO
!
! 5.c Resolution test
!

      IF ( FLAGLL ) THEN
          FACTOR = 1.
        ELSE
          FACTOR = 1.E-3
        END IF
!
! notes: This resolution test, with FACMAX=2, is pretty strict, so
!        it is not going to be appropriate for irregular grids.
!        We'll just have to trust the judgement of the user in the 
!        case of irregular grids. But if we change our minds and do 
!        some kind of check for irregular grids, we could make 
!        a check against median(HPFAC) and median(HQFAC).

      DO I=1, NRGRD
         CALL W3SETG ( I, MDSE, MDST )
         IF ( GTYPE.EQ.RLGTYPE ) THEN
            DO JJ=1, GRDEQL(I,0)
               J      = GRDEQL(I,JJ)
               IF ( GRIDS(J)%GTYPE.EQ.RLGTYPE ) THEN
                  IF ( SX/GRIDS(J)%SX .GT. FACMAX     .OR.                   &
                       SX/GRIDS(J)%SX .LT. 1./FACMAX  .OR.                   &
                       SY/GRIDS(J)%SY .GT. FACMAX     .OR.                   &
                       SY/GRIDS(J)%SY .LT. 1./FACMAX ) THEN
                     IF ( IMPROC.EQ.NMPERR ) WRITE(MDSE,1050) I, FACTOR*SX,  &
                          FACTOR*SY, J, FACTOR*GRIDS(J)%SX, FACTOR*GRIDS(J)%SY
                     CALL EXTCDE ( 1050 )
                  END IF ! IF ( SX/GR ...
               END IF ! IF ( GRIDS(J)%GTYPE...
            END DO ! DO JJ=...
         END IF ! IF ( GTYPE....
      END DO ! DO I=...
!
! 5.d Group number test
!
      DO I=1, NRGRD
        IF ( GRDEQL(I,0) .GE. 2 ) THEN
            TGRP   = GRGRP(GRDEQL(I,1))
            DO J=2, GRDEQL(I,0)
              IF ( GRGRP(GRDEQL(I,J)) .NE. TGRP ) THEN
                  IF ( IMPROC .EQ. NMPERR ) WRITE(MDSE,1051)          &
                                   GRDEQL(I,1), GRGRP(GRDEQL(I,1)),   &
                                   GRDEQL(I,J), GRGRP(GRDEQL(I,J))
                  CALL EXTCDE ( 1051 )
                END IF
              END DO
          END IF
        END DO
!
! -------------------------------------------------------------------- /
! 6.  Final clean up
!
      DO I=1, NRGRD
        DO J=1, NRGRD
          IF ( STORES(I,J)%INIT ) THEN
              DEALLOCATE ( STORES(I,J)%IX  , STORES(I,J)%IY  ,        &
                           STORES(I,J)%NAV , STORES(I,J)%FLA ,        &
                           STORES(I,J)%ISS , STORES(I,J)%JSS ,        &
                           STORES(I,J)%IPS , STORES(I,J)%ITG ,        &
                           STORES(I,J)%AWG , STAT=ISTAT )
              CHECK_DEALLOC_STATUS ( ISTAT )
            END IF
          END DO
        END DO
!
      DEALLOCATE ( SHRANK, STORES, NREC, NSND, NTPP, STAT=ISTAT )
      CHECK_DEALLOC_STATUS ( ISTAT )
!
      RETURN
!
! Formats
!
 1000 FORMAT (/' *** WAVEWATCH III ERROR IN WMGEQL : *** '/           &
               '     UNCOVERED EDGE POINTS FOR GRID',I4,'  (',I6,')'/)
 1001 FORMAT ( '     GRID',I4,'  POINT',2I5,' NOT COVERED (WMGEQL)')
 1002 FORMAT ( '     DIAGNOSTICS IX AND IY RANGE:',4I6)
 1003 FORMAT (/'     SHOWING ',A/)
 1004 FORMAT (2X,65I2)
 1005 FORMAT (/'     SHOWING IX RANGE ',2I6)
 1006 FORMAT ( '        (WILL NOT PRINT ANY MORE UNCOVERED POINTS)')
!
 1020 FORMAT (/' *** WAVEWATCH III WARNING WMGEQL : *** '/            &
       '     REMOVED BOUNDARY POINT FROM OPEN EDGE DISTANCE MAP'/     &
       '     GRID, IX, IY :',3I6)
!
 1050 FORMAT (/' *** WAVEWATCH III ERROR IN WMGEQL : *** '/           &
               '     GRID INCREMENTS TOO DIFFERENT '/                 &
               '     GRID',I4,'   INCREMENTS ',2F8.2/                 &
               '     GRID',I4,'   INCREMENTS ',2F8.2/)
 1051 FORMAT (/' *** WAVEWATCH III ERROR IN WMGEQL : *** '/           &
               '     OVERLAPPING GRIDS NEED TO BE IN SAME GROUP '/    &
               '         GRID',I4,' IN GROUP',I4/                     &
               '         GRID',I4,' IN GROUP',I4/)
!
!/T 9010 FORMAT ( ' TEST WMGEQL : STARTING LOOP OVER GRIDS')
!/T 9011 FORMAT ( ' TEST WMGEQL : I, RANK :',2I4)
!/T 9012 FORMAT ( '               GRID ',I3,' HAS SAME RANK')
!/T 9013 FORMAT ( '               ',A)
!
!/T 9020 FORMAT ( ' TEST WMGEQL : GENERATING DISTANCE MAP GRID ',I3)
!/T 9024 FORMAT ( ' TEST WMGEQL : FINAL MAP FOR X RANGE ',2I6)
!/T 9025 FORMAT (2X,65I2)
!
!/T 9030 FORMAT ( ' TEST WMGEQL : DEPENDENCE INFORMATION GRID ',I3)
!/T 9031 FORMAT ( '               CHECKING GRID ',I3)
!/T 9032 FORMAT ( '               POINTS USED/AVAIL :',2I6)
!/T 9033 FORMAT ( '               TOTAL/GRIDS/OUT   :',3I6)
!/T 9034 FORMAT ( '               LOCAL PER GRID    :',15I6)
!/T 9035 FORMAT ( '               SENDING PER GRID  :',15I6)
!/T 9036 FORMAT ( ' TEST WMGEQL : NUMBER OF CONTRIBUTING GRIDS MAP')
!/T 9037 FORMAT (2X,65I2)
!
!/T 9040 FORMAT ( ' TEST WMGEQL : GRID ',I2,'-',I2,' CLEAR STORAGE')
!/T 9041 FORMAT ( ' TEST WMGEQL : GRID ',I2,'-',I2,' STORAGE SIZE',I6)
!/T 9042 FORMAT ( '               RECV ',I2,'-',I2,' CLEAR STORAGE')
!/T 9043 FORMAT ( '               RECV ',I2,'-',I2,' STORAGE SIZE',2I6)
!/T 9044 FORMAT ( '               SEND ',I2,'-',I2,' CLEAR STORAGE')
!/T 9045 FORMAT ( '               SEND ',I2,'-',I2,' STORAGE SIZE',I6)
!
!/T 9050 FORMAT ( ' TEST WMGEQL : GRDEQL DIMENSIONED AT ',I2)
!/T 9051 FORMAT ( ' TEST WMGEQL : GRDEQL :')
!/T 9052 FORMAT ( '                 ',2i4,' : ',20I3)
!
!/T5 9140 FORMAT ( ' TEST WMGEQL : NO RECEIVING DATA FOR GRID ',I3,   &
!/T5               ' <=====================================')
!/T5 9141 FORMAT ( ' TEST WMGEQL : RECEIVING DATA GRID ',I3,          &
!/T5               ' <=====================================')
!/T5 9142 FORMAT ( '               RECEIVING FROM GRID(S) ',10I3)
!/T5 9143 FORMAT (16X,'COUNT, ISEA, JSEA, WEIGHT / ',                 &
!/T5               'COUNT WEIGHT NR PER GRID')
!/T5 9144 FORMAT (I6,F6.2,I6)
!/T5 9145 FORMAT (12X,3I6,F6.2,10(' - ',A))
!/T5 9146 FORMAT ( ' TEST WMGEQL : RECEIVING DATA AVG. GRID ',I3)
!/T5 9147 FORMAT (12X,I6,I2,4(F8.2,I4,I6))
!
!/T6 9240 FORMAT ( ' TEST WMGEQL : NO SENDING DATA FOR GRID ',I3,     &
!/T6               ' <=====================================')
!/T6 9241 FORMAT ( ' TEST WMGEQL : SENDING DATA GRID ',I3,            &
!/T6               ' <====================================='/         &
!/T6               11X,'COUNT, ISEA, JSEA, ARRAY IND., PROC, TAG')
!/T6 9242 FORMAT ( '              ',4I8,I4,2I8)
!
!/T7 9330 FORMAT ( ' TEST WMGEQL : FULL SOURCE INFO GRID ',I3,        &
!/T7               ' <=====================================')
!/T7 9331 FORMAT ( '               GRID ',I3,' IS NOT OF SAME RANK')
!/T7 9332 FORMAT ( '               GRID ',I3,' CONTRIBUTES TO',I6,    &
!/T7               ' GRID POINTS'/                                    &
!/T7               18X,'<---------- GRID',I6,' ---------->',          &
!/T7                4X,'<----------- GRID',I6,' ----------->'/        &
!/T7               18X,'NR   IX   IY  ISEA  JSEA  IP  WGTH',          &
!/T7                2X,'  WGTH  NA  ISEA  JSEA  IP  WGTH   TAG' )
!/T7 9333 FORMAT (15X,3I5,2I6,I4,F6.2,2X,F6.2,I4,2I6,I4,F6.2,I6)
!/T7 9334 FORMAT (64X,2I6,I4,F6.2,I6)
!/
!/ End of WMGEQL ----------------------------------------------------- /
!/
      END SUBROUTINE WMGEQL
!/ ------------------------------------------------------------------- /
      SUBROUTINE WMRSPC
!/
!/                  +-----------------------------------+
!/                  | WAVEWATCH III           NOAA/NCEP |
!/                  |           H. L. Tolman            |
!/                  |                        FORTRAN 90 |
!/                  | Last update :         10-Dec-2014 !
!/                  +-----------------------------------+
!/
!/    22-Sep-2005 : Origination.                        ( version 3.08 )
!/    25-Jul-2006 : Point output grid added.            ( version 3.10 )
!/    30-Oct-2009 : Implement run-time grid selection.  ( version 3.14 )
!/                  (W. E. Rogers & T. J. Campbell, NRL)
!/    10-Dec-2014 : Add checks for allocate status      ( version 5.04 )
!/
!  1. Purpose :
!
!     Generate map with flogs for need of spectral grid conversion 
!     between models.
!
!  2. Method :
!
!     Test of parameters as introduced before in W3IOBC.
!
!  3. Parameters :
!
!  4. Subroutines used :
!
!      Name      Type  Module   Description
!     ----------------------------------------------------------------
!      STRACE    Sur.  W3SERVMD Subroutine tracing.
!      EXTCDE    Subr.   Id.    Program abort.
!     ----------------------------------------------------------------
!
!  5. Called by :
!
!      Name      Type  Module   Description
!     ----------------------------------------------------------------
!      WMINIT    Subr  WMINITMD Multi-grid model initialization.
!     ----------------------------------------------------------------
!
!  6. Error messages :
!
!  7. Remarks :
!
!  8. Structure :
!
!     See source code.
!
!  9. Switches :
!
!     !/S    Enable subroutine tracing.
!     !/T    Enable test output
!
! 10. Source code :
!
!/ ------------------------------------------------------------------- /
!
      USE W3SERVMD, ONLY: EXTCDE
!/S      USE W3SERVMD, ONLY: STRACE
!
      USE W3GDATMD
      USE W3ODATMD, ONLY: UNIPTS
      USE WMMDATMD
!
      IMPLICIT NONE
!/
!/ ------------------------------------------------------------------- /
!/ Parameter list
!/
!/ ------------------------------------------------------------------- /
!/ Local parameters
!/
      INTEGER                 :: I, J, LOW
!/S      INTEGER, SAVE           :: IENT = 0
!/
!/S      CALL STRACE (IENT, 'WMRSPC')
!
! -------------------------------------------------------------------- /
! 0.  Initializations
!
      IF ( UNIPTS ) THEN
          LOW    = 0
        ELSE
          LOW    = 1
        END IF
      IF ( .NOT. ALLOCATED(RESPEC) ) THEN
          ALLOCATE ( RESPEC(LOW:NRGRD,LOW:NRGRD), STAT=ISTAT )
          CHECK_ALLOC_STATUS ( ISTAT )
        END IF
      RESPEC = .FALSE.
!
! -------------------------------------------------------------------- /
! 1.  Fill map with flags
!
      DO I=LOW, NRGRD
        DO J=I+1, NRGRD
          RESPEC(I,J) = SGRDS(I)%NK    .NE. SGRDS(J)%NK     .OR.      &
                        SGRDS(I)%NTH   .NE. SGRDS(J)%NTH    .OR.      &
                        SGRDS(I)%XFR   .NE. SGRDS(J)%XFR    .OR.      &
                        SGRDS(I)%FR1   .NE. SGRDS(J)%FR1    .OR.      &
                        SGRDS(I)%TH(1) .NE. SGRDS(J)%TH(1)
          RESPEC(J,I) = RESPEC(I,J)
          END DO
        END DO
!
! -------------------------------------------------------------------- /
! 2.  Test output
!
!/T      WRITE (MDST,9000)
!/T      DO I=LOW, NRGRD
!/T        WRITE (MDST,9001) I, RESPEC(I,:)
!/T        END DO
!
      RETURN
!
! Formats
!
!/T 9000 FORMAT ( 'TEST WMRSPC : MAP RESPEC FILLED ')
!/T 9001 FORMAT ( '              ',I4,' : ',20L2)
!/
!/ End of WMRSPC ----------------------------------------------------- /
!/
      END SUBROUTINE WMRSPC
!/
!/ End of module WMGRIDMD -------------------------------------------- /
!/
      END MODULE WMGRIDMD
