#include "w3macros.h"
!/ ------------------------------------------------------------------- /
      PROGRAM W3GRID
!/
!/                  +-----------------------------------+
!/                  | WAVEWATCH III           NOAA/NCEP |
!/                  |           H. L. Tolman            |
!/                  |           J. H. Alves             |
!/                  |            F. Ardhuin             |
!/                  |                        FORTRAN 90 |
!/                  | Last update :         29-May-2014 |
!/                  +-----------------------------------+
!/
!/    14-Jan-1999 : Final FORTRAN 77                    ( version 1.18 )
!/    27-Jan-2000 : Upgrade to FORTRAN 90               ( version 2.00 )
!/                  Add UNFORMATTED bath file option.
!/                  Read options with namelists.
!/    14-Feb-2000 : Adding exact Snl                    ( version 2.01 )
!/    04-May-2000 : Non central source term int.        ( version 2.03 )
!/    24-Jan-2001 : Flat grid option.                   ( version 2.06 )
!/    02-Feb-2001 : Xnl version 3.0                     ( version 2.07 )
!/    09-Feb-2001 : Third propagation scheme added.     ( version 2.08 )
!/    27-Feb-2001 : O0 output switch added.             ( version 2.08 )
!/    16-Mar-2001 : Fourth propagation scheme added.    ( version 2.09 )
!/    29-Mar-2001 : Sub-grid island treatment.          ( version 2.10 )
!/    20-Jul-2001 : Clean up.                           ( version 2.11 )
!/    12-Sep-2001 : Clean up.                           ( version 2.13 )
!/    09-Nov-2001 : Clean up.                           ( version 2.14 )
!/    11-Jan-2002 : Sub-grid ice treatment.             ( version 2.15 )
!/    17-Jan-2002 : DSII bug fix.                       ( version 2.16 )
!/    09-May-2002 : Switch clean up.                    ( version 2.21 )
!/    26-Nov-2002 : Adding first version of NL-3/4.     ( version 3.01 )
!/                  Removed before distribution in 3.12.
!/    26-Dec-2002 : Relaxing CFL time step.             ( version 3.02 )
!/    01-Aug-2003 : Modify GSE correction for moving gr.( version 3.03 )
!/                  Add offset option for first direction.
!/    24-Dec-2004 : Multiple grid version.              ( version 3.06 )
!/    04-May-2005 : Allow active points at edge.        ( version 3.07 )
!/    07-Jul-2005 : Add MAPST2 and map processing.      ( version 3.07 )
!/    09-Nov-2005 : Remove soft boundary options.       ( version 3.08 )
!/    23-Jun-2006 : Adding alternative source terms.    ( version 3.09 )
!/                  Module W3SLN1MD, dummy for others.
!/    28-Jun-2006 : Adding file name preamble.          ( version 3.09 )
!/    28-Oct-2006 : Spectral partitioning.              ( version 3.09 )
!/    09-Jan-2007 : Correct edges of read mask.         ( version 3.10 )
!/    26-Mar-2007 : Add to spectral partitioning.       ( version 3.11 )
!/    14-Apr-2007 : Add Miche style limiter.            ( version 3.11 )
!/                  ( J. H. Alves )
!/    25-Apr-2007 : Battjes-Janssen Sdb added.          ( version 3.11 )
!/                  ( J. H. Alves )
!/    18-Sep-2007 : Adding WAM4 physics option.         ( version 3.13 )
!/                  ( F. Ardhuin )
!/    09-Oct-2007 : Adding bottom scattering SBS1.      ( version 3.13 )
!/                  ( F. Ardhuin )
!/    22-Feb-2008 : Initialize TRNX-Y properly.         ( version 3.13 )
!/    29-May-2009 : Preparing distribution version.     ( version 3.14 )
!/    23-Jul-2009 : Modification of ST3 namelist  .     ( version 3.14-SHOM )
!/    31-Mar-2010 : Addition of shoreline reflection    ( version 3.14-IFREMER )
!/    29-Jun-2010 : Adding Stokes drift profile output  ( version 3.14-IFREMER )
!/    30-Aug-2010 : Adding ST4 option                   ( version 3.14-IFREMER )

!/    30-Oct-2009 : Implement run-time grid selection.  ( version 3.14 )
!/                  (W. E. Rogers & T. J. Campbell, NRL)
!/    30-Oct-2009 : Implement curvilinear grid type.    ( version 3.14 )
!/                  (W. E. Rogers & T. J. Campbell, NRL)
!/    29-Oct-2010 : Clean up of unstructured grids      ( version 3.14.4 )
!/                  (A. Roland and F. Ardhuin) 
!/    06-Dec-2010 : Change from GLOBAL (logical) to ICLOSE (integer) to
!/                  specify index closure for a grid. Change GLOBAL
!/                  input in ww3_grid.inp to CSTRG.     ( version 3.14 )
!/                  (T. J. Campbell, NRL)
!/    25-Jun-2011 : Adding movable bed friction         ( version 4.01 )
!/    16-Sep-2011 : Clean up.                           ( version 4.05 )
!/    01-Dec-2011 : New namelist for reflection         ( version 4.05 )
!/    01-Mar-2012 : Bug correction for NLPROP in ST2    ( version 4.05 )
!/    12-Jun-2012 : Add /RTD option or rotated grid.    ( version 4.06 ) 
!/                  (Jian-Guo Li, UK Met Office) 
!/    13-Jul-2012 : Move data structures GMD (SNL3) and nonlinear
!/                  filter (SNLS) from 3.15 (HLT).      ( version 4.07 )
!/    02-Sep-2012 : Clean up of reflection and UG grids ( version 4.08 )
!/    12-Dec-2012 : Adding SMC grid.  JG_Li             ( version 4.08 )
!/    19-Dec-2012 : Add NOSWLL as namelist variable.    ( version 4.OF )
!/    05-Mar-2013 : Adjusted default roughness for rocks( version 4.09 )
!/    01-Jun-2013 : Adding namelist for spectral output ( version 4.10 )
!/    12-Sep-2013 : Adding Arctic part for SMC grid.    ( version 4.11 )
!/    01-Nov-2013 : Changed UG list name to UNST        ( version 4.12 )
!/    11-Nov-2013 : SMC and rotated grid incorporated in the main 
!/                  trunk                               ( version 4.13 )
!/    13-Nov-2013 : Moved out reflection to W3UPDTMD    ( version 4.12 )
!/    27-Jul-2013 : Adding free infragravity waves      ( version 4.15 )
!/    02-Dec-2013 : Update of ST4                       ( version 4.16 )
!/    16-Feb-2014 : Adds wind bias correction: WCOR     ( version 5.00 )
!/    10-Mar-2014 : Adding namelist for IC2             ( version 5.01 )
!/    29-May-2014 : Adding namelist for IC3             ( version 5.01 )
!/    15 Oct-2015 : Change SMC grid input files. JGLi   ( version 5.09 )
!/
!/    Copyright 2009-2013 National Weather Service (NWS),
!/       National Oceanic and Atmospheric Administration.  All rights
!/       reserved.  WAVEWATCH III is a trademark of the NWS. 
!/       No unauthorized use without permission.
!/
!  1. Purpose :
!
!     "Grid" preprocessing program, which writes a model definition
!     file containing the model parameter settigs and grid data.
!
!  2. Method :
!
!     Information is read from the file ww3_grid.inp (NDSI), or
!     preset in this program. A model definition file mod_def.ww3 is
!     then produced by W3IOGR. Note that the name of the model
!     definition file is set in W3IOGR.
!
!  3. Parameters :
!
!     Local parameters.
!     ----------------------------------------------------------------
!       NDSI    Int.  Input unit number ("ww3_grid.inp").
!       NDSS    Int.  Scratch file.
!       NDSG    Int.  Grid unit ( may be NDSI )
!       NDSTR   Int.  Sub-grid unit ( may be NDSI or NDSG )
!       VSC     Real  Scale factor.
!       VOF     Real  Add offset.
!       ZLIM    Real  Limiting bottom depth, used to define land.
!       IDLA    Int.  Layout indicator used by INA2R.
!       IDFM    Int.  Id. FORMAT indicator.
!       RFORM   C*16  Id. FORMAT.
!       FNAME   C*60  File name with bottom level data.
!       FROM    C*4   Test string for open, 'UNIT' or 'FILE'
!     ----------------------------------------------------------------
!
!  4. Subroutines used :
!
!      Name      Type  Module   Description
!     ----------------------------------------------------------------
!      W3NMOD    Subr. W3GDATMD Set number of model.
!      W3SETG    Subr.   Id.    Point to selected model.
!      W3DIMS    Subr.   Id.    Set array dims for a spectral grid.
!      W3DIMX    Subr.   Id.    Set array dims for a spatial grid.
!      W3GRMP    Subr. W3GSRUMD Compute bilinear interpolation for point
!      W3NOUT    Subr. W3ODATMD Set number of model for output.
!      W3SETO    Subr.   Id.    Point to selected model for output.
!      W3DMO5    Subr.   Id.    Set array dims for output type 5.
!      ITRACE    Subr. W3SERVMD Subroutine tracing initialization.
!      STRACE    Subr.   Id.    Subroutine tracing.
!      NEXTLN    Subr.   Id.    Get next line from input filw
!      EXTCDE    Subr.   Id.    Abort program as graceful as possible.
!      DISTAB    Subr. W3DISPMD Make tables for solution of the
!                               dispersion relation.
!      READNL    Subr. Internal Read namelist.
!      INAR2R    Subr. W3ARRYMD Read in an REAL array.
!      PRTBLK    Subr.   Id.    Print plot of array.
!      W3IOGR    Subr. W3IOGRMD Reading/writing model definition file.
!     ----------------------------------------------------------------
!
!  5. Called by :
!
!     None, stand-alone program.
!
!  6. Error messages :
!
!  7. Remarks :
!
!      Physical grid :
!     -----------------
!
!     The physical grid is defined by a grid counter IX defining the
!     discrete longitude and IY defining the discrete latitude as shown
!     below. For mathemathical convenience, these grid axes will
!     generally be denoted as the X and Y axes. Two-dimensional arrays
!     describing parameters on this grid are given as A(IY,IX).
!
!           IY=NY
!             ^  |      |      |      |      |      |            ^ N
!             |  |------|------|------|------|------|----        |
!             |  |  ::  |  25  |  26  |  27  |  28  |          --|--
!                |------|------|------|------|------|----        |
!           IY=3 |  ::  |  ::  |  9   |  10  |  11  |            |
!                |------|------|------|------|------|----
!           IY=2 |  ::  |   1  |   2  |  ::  |   3  |
!                |------|------|------|------|------|----
!           IY=1 |  ::  |  ::  |  ::  |  ::  |  ::  |
!                +------+------+------+------+------+----
!                  IX=1   IX=2   IX=3   IX=4   IX=5   ---> IX=NX
!
!                                        :: is a land point.
!
!     To reduce memory usage of the model, spectra are stored for sea
!     points only, in a one-dimensional grid with the length NSEA. This
!     grid is called the storage grid. The definition of the counter
!     in the storage grid is graphically depicted above. To transfer
!     data between the two grids, the maps MAPFS and MAPSF are
!     determined. MAPFS gives the counter of the storage grid ISEA
!     for every physical grid point (IY,IX), such that
!
!             MAPFS(IY,IX) = ISEA
!
!     ISEA = 0 corresponds to land points. The map MAPSF gives the grid
!     counters (IY,IX) for a given storage point ISEA.
!
!             MAPSF(ISEA,1) = IX
!             MAPSF(ISEA,2) = IY
!             MAPSF(ISEA,3) = IY+(IX-1)*NY  ( filled during reading )
!
!     Finally, a status maps MAPSTA and MAPST2 are determined, where
!     the status indicator ISTAT = MAPSTA(IY,IX) determines the type
!     of the grid point.
!
!         ISTAT  Means
!       ---------------------------------------------------
!           0    Point excluded from grid.
!        (-)1    Sea point
!        (-)2    "Active" boundary point (data prescribed)
!
!     For ISTAT=0, the secondary status counter ISTA2 is defined as
!
!         ISTA2  Means
!       ---------------------------------------------------
!           0    Land point.
!           1    Point excluded from grid.
!
!     Negative values of ISTAT identify points that are temporarily
!     taken out of the computation. For these points ISTA2 are
!     defined per bit
!
!         BIT    Means
!       ---------------------------------------------------
!          1     Ice flag (1 = ice coverage)
!          2     Dry flag (1 = dry point with depth 0)
!          3     Inferred land in multi-grid model.
!          4     Masking in multi-grid model.
!          5     land point flag for relocatable grid.
!
!      Thus ISTA2=0 for ISTAT<0 is in error, ISTA2=1 means ice cover,
!      ISTA2=3 means ice on dry point, etc.
!
!      Spectral grid :
!     -----------------
!
!     In the spectral grid (and in physical space in general),
!     the cartesian convention for directions is used, i.e., the
!     direction 0 corresponds to waves propagating in the positive
!     X-direction and 90 degr. corresponds to waves propagating in
!     the positive Y-direction. Similar definitions are used for the
!     internal description of winds and currents. Output can obviously
!     be transformed according to any preferred convention.
!
!          ITH=NTH
!             ^  |      |      |      |      |
!             |  |------|------|------|------|----
!             |  |      |      |      |      |      TH(3) = DTH*2.
!                |------|------|------|------|----
!          ITH=2 |      |      |      |      |      TH(2) = DTH
!                |------|------|------|------|----
!          ITH=1 |      |      |      |      |      TH(1) = 0.
!                +------+------+------+------+----
!                  IK=1   IK=2   IK=3   IK=4   ---> IK=NK
!
!     The spectral grid consists of NK wavenumbers. The first
!     wavenumber IK=1 corresponds to the longest wave. The wavenumber
!     grid varies in space, as given by an invariant relative freq.
!     grid and the local depth. The spectral grid furthermore contains
!     NTH directions, equally spaced over a full circle. the first
!     direction corresponds to the direction 0, etc.
!
! (Begin SMC description)
!
!      Spherical Multiple-Cell (SMC) grid 
!     -----------------------------------
!
!     SMC grid is a multi-resolution grid using cells of multiple times 
!     of each other.  It is similar to the lat-lon grid using rectangular 
!     cells but only cells at sea points are retained.  All land points 
!     have been removed from the model.  At high latitudes, cells are 
!     merged longitudinally to relax the CFL resctiction on time steps. 
!     Near coastlines, cells are divided into quarters in a few steps so 
!     that high resolution is achieved to refine coastlines and resolve 
!     small islands.  At present, three tiers of quarter cells are used.
!     For locating purpose, a usual x-y counter is setup by the smallest 
!     cell size and starting from the south-west corner of the usual 
!     rectuangular domain.  Each sea cell is then given a pair of x-y 
!     index, plus a pair of increments.  These four index are stored in 
!     the cell array IJKCel(NCel, 5), each row holds i, j, di, dj, ndps
!     where ndps is an integer depth in metre.  If precision higher than
!     a metre is required, it may use other unit (cm for instance) with a
!     conversion factor.  
!    
!     For transport calculation, two face arrays, IJKUFc(NUFc, 7) and 
!     IJKVFc(NVFc,8), are also created to store the neighbouring cell 
!     sequential numbers and the face location and size.  The 3 arrays 
!     are calculated outside the wave model and input from text files.
!
!     Boundary condition is added for SMC grid so that it can be used for
!     regional model as well.  Most of the original boundary settings
!     are reclaimed as long as the boundary condition file is provided
!     by a lat-lon grid WW3 model, which will set the interpolation
!     parameters in the boundary condition file.  The NBI number is
!     reset with an input value because the NX-Y double loop overcount
!     the boundary cells for merged cells in the SMC grid.  ISBPI
!     boundary cell mapping array is fine as MAPFS uses duplicated cell
!     number in any merged cell.  From there, all original NBI loops are 
!     reusable. 
!
!     The whole Arctic can be included in the SMC grid if another option
!     ARC is activated along with the SMC option.  ARC option appends
!     the polar Arctic part above 86N to the existing SMC grid and uses
!     a map-east reference direction for this extra polar region.
!     Because the map-east direction changes with latitude and longitude
!     the wave spectra defined to the map-east direction could not mixed
!     up with the conventional spectra defined to the local east
!     direction.  A rotation sub is provided for convertion from one to
!     another.  Propagation part will be calculated together, including
!     the boundary cells.  The boundary cells are then updated by
!     assigning the corresponding inner cells to them after conversion.
!     Boundary cells are duplicated northmost 4 rows of the global part
!     and they can be excluded for source term and output if required.
!     For convenience, Arctic cellls are all base level cells and are
!     appended to the end of the global cells.  If refined cells were
!     used in the Arctic part, it would not be kept all together, making
!     the sub-loops much more complicated.
!
!     For more information about the SMC grid, please refer to  
!     Li, J.G. (2012) Propagation of Ocean Surface Waves on a Spherical
!     Multiple-Cell Grid.  J. Comput. Phys., 231, 8262-8277.  online at
!     http://dx.doi.org/10.1016/j.jcp.2012.08.007
!
! (End SMC description)
!
!     ICEWIND is the scale factor for reduction of wind input by ice 
!     concentration. Value specified corresponds to the fractional 
!     input for 100% ice concentration. Default is 1.0, meaning that
!     100% ice concentration result in zero wind input. 
!     Sin_in_ice=Sin_in_open_water * (1-ICE*ICEWIND)

!     -----------------------------------------------------------------*
!  8. Structure :
!
!     ----------------------------------------------------------------
!        1.   Set up grid storage structure.
!                               ( W3NMOD , W3NOUT , W3SETG , W3SETO )
!        2.a  I-O setup.
!          b  Print heading(s).
!        3.   Prepare int. table for dispersion relation   ( DISTAB )
!        4.   Read and process input file up to spectrum.
!          a  Get comment character
!          b  Name of grid
!          c  Define spectrum                              ( W3DIMS )
!        5.   Set-up discrete spectrum.
!          a  Directions.
!          b  Frequency for spectrum.
!        6.   Read and process input file up to numerical parameters
!          a  Set model flags and time steps
!          b  Set / select source term package
!          c  Pre-process namelists.
!          d  Wind input source term.
!          e  Nonlinear interactions.
!          f  Whitecapping term.
!          g  Bottom friction source term.
!          h  Depth indiced breaking source term.
!          i  Triad interaction source term.
!          j  Bottom scattering source term.
!          k  Undefined source term.
!          l  Set / select propagaton scheme
!          m  Parameters for propagation scheme.
!          n  Set misc. parameters (ice, seeding, ...)
!          o  End of namelist processing
!          p  Set various other variables
!        7.   Read and prepare grid.
!          a  Layout of grid
!          b  Storage of grid of grid
!          c  Read bottom depths
!          d  Set up temp map
!          e  Subgrid information
!            1 Info from input file
!            2 Open file and check if necessary
!            3 Read the data
!            4 Limit
!        8    Finalize status maps
!          a  Determine where to get the data
!             Get data in parts from input file
!             ----------------------------------------------------
!          b  Read and update TMPSTA with bound. and excl. points.
!          c  Finalize excluded points
!             ----------------------------------------------------
!             Read data from file
!             ----------------------------------------------------
!          d  Read data from file
!             ----------------------------------------------------
!          e  Get NSEA and other counters
!          f  Set up all maps                              ( W3DIMX )
!        9.   Prepare output boundary points.
!          a  Read
!          b  Update
!       10.   Write model definition file.                 ( W3IOGR )
!     ----------------------------------------------------------------
!
!  9. Switches :
!
!     !/FLX1  Stresses according to Wu (1980).
!     !/FLX2  Stresses according to T&C (1996).
!     !/FLX3  Stresses according to T&C (1996) with cap on Cd.
!     !/FLX4  Stresses according to Hwang (2011).
!
!     !/LN0   No linear input source term.
!     !/SEED  'Seeding' of lowest frequency for sufficiently strong
!             winds. Proxi for linear input.
!     !/LN1   Cavaleri and Melanotte-Rizzoli with Tolman filter.
!     !/LNX   Open slot.
!
!     !/ST0   No source terms included (input/dissipation)
!     !/ST1   WAM-3 physics package.
!     !/ST2   Tolman and Chalikov (1996) physics package.
!     !/ST3   WAM 4+ source terms from P.A.E.M. Janssen and J-R. Bidlot
!     !/ST4   Ardhuin et al. (2009,2010) input and dissipation 
!     !/ST6   BYDRZ source term package featuring Donelan et al.
!             (2006) input and Babanin et al. (2001,2010) dissipation.
!     !/STX   Open slot.
!
!     !/NL0   No nonlinear interactions.
!     !/NL1   Discrete interaction approximation (DIA).
!     !/NL2   Exact interactions (WRT).
!     !/NL3   Generalized Multiple DIA (GMD).
!     !/NL4   Two Scale Approximation
!     !/NLX   Open slot.
!     !/NLS   Snl based HF filter.
!
!     !/BT0   No bottom friction included.
!     !/BT1   JONSWAP bottom friction package.
!     !/BT4   SHOWEX bottom friction using movable bed roughness 
!                  (Tolman 1994, Ardhuin & al. 2003)
!     !/BTX   Open slot.
!
!     !/IC1   Sink term for interaction with ice (uniform k_i)
!     !/IC2   Sink term for under-ice boundary layer friction 
!                  (Liu et al.    1991: JGR 96 (C3), 4605-4621)
!                  (Liu and Mollo 1988: JPO 18       1720-1712)
!     !/IC3   Sink term for interaction with ice (Wang and Shen method)
!                  (Wang and Shen JGR 2010)
!     !/IC4   Sink term for empirical, frequency-dependent attenuation
!                   in ice (Wadhams et al. 1988: JGR 93 (C6) 6799-6818)
!
!     !/DB0   No depth-induced breaking included.
!     !/DB1   Battjes-Janssen depth-limited breaking.
!     !/DBX   Open slot.
!     !/MLIM  Mich-style limiter.
!
!     !/TR0   No triad interactions included.
!     !/TRX   Open slot.
!
!     !/BS0   No bottom scattering included.
!     !/BS1   Routines from F. Ardhuin.
!     !/BSX   Open slot.
!
!     !/XX0   No unclasified source term included.
!     !/XXX   Open slot.
!
!     !/PR1   First order propagation scheme.
!     !/PR2   QUICKEST scheme with ULTIMATE limite and diffusion
!             correction for swell dispersion.
!     !/PR3   Averaging ULTIMATE QUICKEST scheme.
!
!     !/RTD   Rotated regular lat-lon grid. 
!     !/SMC   UNO2 scheme on Spherical Multiple-Cell grid.   
!     !/ARC   Append the Arctic part to the SMC grid.
!
!     !/MGG   GSE correction for moving grid.
!
!     !/S     Enable subroutine tracing.
!     !/T     Enable test output.
!     !/T0    Enable test output tables for boundary output.
!
!     !/O0    Print equivalent namelist setting to std out.
!     !/O1    Print tables with boundary points as part of output.
!     !/O2    Print MAPSTA as part of output.
!     !/O2a   Print land-sea mask in mask.ww3.
!     !/O2b   Print obstruction data.
!     !/O2c   Print extended status map.
!
! 10. Source code :
!
!/ ------------------------------------------------------------------- /
      USE CONSTANTS
!/
      USE W3TRIAMD
      USE W3GSRUMD, ONLY: W3GRMP
      USE W3ODATMD, ONLY: W3NOUT, W3SETO, W3DMO5
      USE W3IOGRMD, ONLY: W3IOGR
      USE W3SERVMD, ONLY: ITRACE, NEXTLN, EXTCDE
!/RTD      USE W3SERVMD, ONLY: W3EQTOLL 
!/ARC      USE W3SERVMD, ONLY: W3LLTOEQ 
!/S      USE W3SERVMD, ONLY: STRACE
      USE W3ARRYMD, ONLY: INA2R, INA2I
!/T      USE W3ARRYMD, ONLY: PRTBLK
      USE W3DISPMD, ONLY: DISTAB
!/
      USE W3GDATMD
      USE W3ODATMD, ONLY: NDSE, NDST, NDSO
      USE W3ODATMD, ONLY: NBI, NBI2, NFBPO, NBO, NBO2, FLBPI, FLBPO,  &
                          IPBPO, ISBPO, XBPO, YBPO, RDBPO, FNMPRE,    &
                          IHMAX, HSPMIN, WSMULT, WSCUT, FLCOMB,       &
                          NOSWLL
!
!/NL3      USE W3SNL3MD, ONLY: LAMMAX, DELTHM
!/NLS      USE W3SNLSMD, ONLY: ABMAX
!
      IMPLICIT NONE
!/
!/ ------------------------------------------------------------------- /
!/ Local parameters
!/
      INTEGER, PARAMETER      :: NFL = 6
      INTEGER                 :: NDSI, NDSI2, NDSS, NDSM, NDSG, NDSTR,&
                                 IERR, NDSTRC, NTRACE, ITH, IK, ITH0, &
                                 ISP, IYN(NFL), NRLIN, NRSRCE, NRNL,  &
                                 NRBT, NRDB, NRTR, NRBS, NRXX, NRPROP,&
                                 IDLA, IDFM, IX0, IXN, IX, IY, ISEA,  &
                                 IDX, IXO, IDY, IYO, IBA, NBA, ILOOP, &
                                 IFL, NBOTOT, NPO, IP, IX1, IX2, IY1, &
                                 IY2, J, JJ, IXR(4), IYR(4), ISEAI(4),&
                                 IST, NKI, NTHI, NRIC, NRIS,          &
                                 IDFT, NSTAT, NBT, NLAND, NOSW
!/PALM     INTEGER            :: IPALM, JPALM
!/NL2      INTEGER            :: IDEPTH
!/O1      INTEGER             :: IBI, IP0, IPN, IPH, IPI
      INTEGER                 :: NCOL =  78
!     INTEGER                 :: NCOL = 130
!     INTEGER                 :: NCOL = 180
!/SMC !!Li     Offset to change Equator index = 0 to regular index JEQT
!/SMC !!Li     LvSMC  levels of refinded resolutions for SMC grid.  
!/SMC !!Li     NBISMC number of boundary point for regional SMC grid.  
!/SMC !!Li     ISHFT for SMC i-index from smc origin to regular grid west edge. 
!/SMC !!Li     SMC cell only subgrid obstruction array dimensions NCObst, JObs.
!/SMC      INTEGER      :: JEQT, LvSMC, NBISMC, JS, NCObst, JObs, ISHFT
!/SMC      INTEGER      :: NGUI, NGVJ
!/ARC      INTEGER      :: NAUI, NAVJ
!
!/O2      INTEGER                 :: NMAP, IMAP
      INTEGER                 :: NMAPB, IMAPB
!/T      INTEGER                 :: IX3, IY3
!/T0      INTEGER                 :: IFILE
!/S      INTEGER, SAVE           :: IENT = 0
      INTEGER, ALLOCATABLE    :: TMPSTA(:,:), TMPMAP(:,:), READMP(:,:)
!/T      INTEGER, ALLOCATABLE    :: MAPOUT(:,:)
      REAL                    :: RXFR, RFR1, SIGMA, SXFR, FACHF,      &
                                 VSC, VOF,                            &
                                 ZLIM, X, Y, XP,  XO0, YO0, DXO, DYO, &
                                 XO, YO, RD(4), RDTOT,                &
                                 FACTOR, RTH0, FMICHE, RWNDC,         &
                                 WCOR1, WCOR2
      CHARACTER(LEN=4)        :: GSTRG, CSTRG
!
! Variables used to allow spectral output on full grid
!
      INTEGER                 :: P2SF,I1P2SF,I2P2SF
      INTEGER                 :: E3D,I1E3D,I2E3D
      INTEGER                 :: US3D,I1US3D,I2US3D,                  &
                                 TH1MF, I1TH1M, I2TH1M,               &
                                 STH1MF, I1STH1M, I2STH1M,            &
                                 TH2MF, I1TH2M, I2TH2M,               &
                                 STH2MF, I1STH2M, I2STH2M
!
!/LN1      REAL                    :: CLIN, RFPM, RFHF
!/ST1      REAL                    :: CINP, CDIS, APM
!/ST2      REAL                    :: PHIMIN, FPIA, FPIB, DPHID
!/NL1      REAL                    :: NLPROP
!/NL2      REAL                    :: DPTFAC, DEPTHS(100)
!/NL3      REAL                    :: QPARMS(500)
!/NLS      REAL                    :: A34, FHFC, DNM, FC1, FC2, FC3
!/BT1      REAL                    :: GAMMA
!/PR2      REAL                    :: LATMIN
!
!/SMC      REAL                    :: LATMIN, TRNMX, TRNMY
!/SMC      INTEGER, ALLOCATABLE    :: NLvCelsk(:),  NLvUFcsk(:),  NLvVFcsk(:)
!/SMC      INTEGER, ALLOCATABLE    :: IJKCelin(:,:),IJKUFcin(:,:),IJKVFcin(:,:)
!/SMC      INTEGER, ALLOCATABLE    :: NBICelin(:),  IJKObstr(:,:)
!/ARC      REAL                    :: PoLonAC, PoLatAC
!/ARC      INTEGER, ALLOCATABLE    :: IJKCelAC(:,:),IJKUFcAC(:,:),IJKVFcAC(:,:)
!/ARC      REAL,    ALLOCATABLE    :: XLONAC(:),YLATAC(:),ELONAC(:),ELATAC(:) 
!
!/RTD      REAL, ALLOCATABLE       :: AnglDin(:,:),StdLon(:,:),StdLat(:,:)
      REAL, ALLOCATABLE       :: XGRDIN(:,:), YGRDIN(:,:)
      REAL, ALLOCATABLE       :: ZBIN(:,:), OBSX(:,:), OBSY(:,:)
      REAL, ALLOCATABLE       :: REFD(:,:), REFD2(:,:), REFS(:,:)
!/BT4      REAL, ALLOCATABLE  :: SED_D50FILE(:,:), SED_POROFILE(:,:)
!/BT4      LOGICAL            :: SEDMAPD50
!/BT4      REAL               :: SED_D50_UNIFORM, SED_DSTAR, RIPFAC1, &
!/BT4                            RIPFAC2, RIPFAC3, RIPFAC4, SIGDEPTH, &
!/BT4                            BOTROUGHMIN, BOTROUGHFAC
      LOGICAL                 :: FLLIN, FLINDS, FLNL, FLBT, FLDB,     &
                                 FLTR, FLBS, FLXX, FLPROP, FLREF,     &
                                 FIRST, CONNCT, FLNEW, INGRID,FLIC,   &
                                 FLIS
      LOGICAL                 :: FLTC96 = .FALSE.
      LOGICAL                 :: FLNMLO = .FALSE.
      LOGICAL                 :: FLSTB2 = .FALSE.
      LOGICAL                 :: FLST4  = .FALSE.
      LOGICAL                 :: FLST6  = .FALSE.

!!Li  Add a logical variable to shelter regular grid lines from SMC grid.
      LOGICAL                 :: RGLGRD = .TRUE.
!!Li
      REAL                    :: FACBERG, REFSLOPE
!/IS1      REAL                    :: ISC1, ISC2
!/IS2      REAL                    :: ISC1, IS2BACKSCAT, IS2C2, IS2C3,&
!/IS2                                 IS2FRAGILITY, IS2DMIN, IS2DAMP, &
!/IS2                                 IS2CONC, IS2CREEPB, IS2CREEPC,  &
!/IS2                                 IS2CREEPD, IS2CREEPN, IS2BREAKE, IS2BREAKF 
!/IS2      LOGICAL                 :: IS2BREAK, IS2DISP, IS2DUPDATE 
!/REF1      REAL                    :: REFCOAST, REFFREQ, REFMAP,     &
!/REF1                                 REFSUBGRID, REFRMAX, REFMAPD,  &
!/REF1                                 REFICEBERG, REFCOSP_STRAIGHT,  &
!/REF1                                 REFFREQPOW
!
!/IG1  LOGICAL                 :: IGSWELLMAX, IGBCOVERWRITE
!/IG1  INTEGER                 :: IGMETHOD, IGADDOUTP, IGSOURCE,      &
!/IG1                             IGSOURCEATBP, IGSTERMS
!/IG1  REAL                    :: IGMAXFREQ, IGMINDEP, IGMAXDEP,      &
!/IG1                             IGKDMIN, IGFIXEDDEPTH, IGEMPIRICAL
!
!/IC2  LOGICAL                 :: IC2DISPER
!/IC2  REAL                    :: IC2TURB, IC2ROUGH, IC2REYNOLDS,      &
!/IC2                             IC2SMOOTH, IC2VISC, IC2TURBS

!/IC3  REAL                    :: IC2TURB, IC2ROUGH, IC2REYNOLDS,      &
!/IC3                             IC2SMOOTH, IC2VISC, IC2TURBS,        &
!/IC3                             IC3MAXTHK, IC3MAXCNC,                &
!/IC3                             IC3HILIM, IC3KILIM,                  &
!/IC3                             IC3VISC, IC3ELAS, IC3DENS, IC3HICE
!/IC3  LOGICAL                 :: IC3CHENG,USECGICE

!/IC4  INTEGER                 :: IC4METHOD
!/IC4  REAL                    :: IC4KI(NIC4), IC4FC(NIC4)

      CHARACTER               :: COMSTR*1, PNAME*30, RFORM*16,        &
                                 FROM*4, FNAME*60, TNAME*60, LINE*80, &
                                 STATUS*20,FNAME2*60, PNAME2*40
      CHARACTER(LEN=6)        :: YESXNO(2)
!/FLX3      CHARACTER(LEN=18)       :: TYPEID
!/ ------------------------------------------------------------------- /
!/ Namelists
!/
      INTEGER                 :: FLAGTR, IHM
      REAL                    :: CFLTM, CICE0, CICEN, PMOVE, XFILT,    &
                                 LICE, XSEED, XR, HSPM, WSM, WSC, STDX,&
                                 STDY, STDT, ICEHMIN, ICEHINIT, ICEWIND
      REAL(8)                 :: GSHIFT ! see notes in WMGHGH
      LOGICAL                 :: FLC, ICEDISP
!/FLD1      INTEGER                 :: TAILTYPE
!/FLD1      REAL                    :: TAILLEV, TAILT1, TAILT2
!/FLD2      INTEGER                 :: TAILTYPE
!/FLD2      REAL                    :: TAILLEV, TAILT1, TAILT2
!/FLX3      INTEGER                 :: CTYPE
!/FLX3      REAL                    :: CDMAX
!/FLX4      REAL                    :: CDFAC
!/ST2      REAL                    :: ZWND, SWELLF, STABSH, STABOF,        &
!/ST2                                 CNEG, CPOS, FNEG, FPOS
!/ST2      REAL                    :: SDSA0, SDSA1, SDSA2,                 &
!/ST2                                 SDSB0, SDSB1, SDSB2, SDSB3
!/ST3      REAL                    :: ZWND, ALPHA0, Z0MAX, BETAMAX, SINTHP,&
!/ST3                                 ZALP, SWELLF, FXPM3, FXFM3,          &
!/ST3                                 WNMEANPTAIL, WNMEANP, STXFTF, STXFTWN
!/ST3      REAL                    :: STXFTFTAIL, SDSC1,                   &
!/ST3                                 SDSDELTA1, SDSDELTA2
!
!/ST4      INTEGER                 :: SWELLFPAR,SDSISO,SDSBRFDF
!/ST4      REAL                    :: ZWND, ALPHA0, Z0MAX, BETAMAX, SINTHP,&
!/ST4                                 ZALP, Z0RAT, TAUWSHELTER, SWELLF,    &
!/ST4                                 SWELLF2,SWELLF3,SWELLF4, SWELLF5,    &
!/ST4                                 SWELLF6, SWELLF7, FXPM3, FXFM3,      &
!/ST4                                 WNMEANPTAIL, WNMEANP, STXFTF,        &
!/ST4                                 STXFTWN, SINBR, FXFMAGE, FXINCUT,    &
!/ST4                                 FXDSCUT
!/ST4      REAL                    :: STXFTFTAIL, SDSC1, SDSC2, SDSCUM,    &
!/ST4                                 SDSC4, SDSC5, SDSC6, WHITECAPWIDTH,  &
!/ST4                                 SDSSTRAIN, SDSBR, SDSP,              &
!/ST4                                 SDSCOS, SDSDTH, SDSBCK, SDSABK,      &
!/ST4                                 SDSPBK, SDSBINT, SDSHCK,             &               
!/ST4                                 SDSBR2, SDSBRF1,                     &
!/ST4                                 SDSBM0, SDSBM1, SDSBM2, SDSBM3,      &
!/ST4                                 SDSBM4, SDSLFGEN, SDSHFGEN
!
!/ST6      REAL                    :: SINA0, SDSA1, SDSA2, SWLB1
!/ST6      INTEGER                 :: SDSP1, SDSP2
!/ST6      LOGICAL                 :: SDSET, CSTB1
!
!/NL1      REAL                    :: LAMBDA, KDCONV, KDMIN,               &
!/NL1                                 SNLCS1, SNLCS2, SNLCS3
!/NL2      INTEGER                 :: IQTYPE, NDEPTH
!/NL2      REAL                    :: TAILNL
!/NL3      INTEGER                 :: NQDEF
!/NL3      REAL                    :: MSC, NSC, KDFD, KDFS
!/NL4      INTEGER                 :: INDTSA, ALTLP
!/DB1      REAL                    :: BJALFA, BJGAM
!/DB1      LOGICAL                 :: BJFLAG
!/PR2      REAL                    :: DTIME
!
!/SMC      REAL                    :: DTIME, RFMAXD, SYMR, YJ0R
!/SMC      LOGICAL                 :: UNO3, AVERG 
!
!/PR3      REAL                    :: WDTHCG, WDTHTH
           REAL                    :: UGOBCDEPTH
           LOGICAL                 :: UGOBCAUTO, EXPFSN, EXPFSPSI,     &
                                      EXPFSFCT,IMPFSN
           INTEGER                 :: UNSTSCHEMES(4), UNSTSCHEME
!
!/FLD1      NAMELIST /FLD1/ TAILTYPE, TAILLEV, TAILT1, TAILT2
!/FLD2      NAMELIST /FLD2/ TAILTYPE, TAILLEV, TAILT1, TAILT2
!/FLX3      NAMELIST /FLX3/ CDMAX, CTYPE
!/FLX4      NAMELIST /FLX4/ CDFAC
!/IC2      NAMELIST /SIC2/  IC2DISPER, IC2TURB, IC2ROUGH, IC2REYNOLDS,      &
!/IC2                      IC2SMOOTH, IC2VISC, IC2TURBS
!/IC3      NAMELIST /SIC3/  IC3MAXTHK, IC2TURB, IC2ROUGH, IC2REYNOLDS,      &
!/IC3                      IC2SMOOTH, IC2VISC, IC2TURBS, IC3MAXCNC,      &
!/IC3                      IC3CHENG, USECGICE, IC3HILIM, IC3KILIM,      &
!/IC3                      IC3VISC, IC3ELAS, IC3DENS, IC3HICE
!/IC4      NAMELIST /SIC4/  IC4METHOD, IC4KI, IC4FC
!/IG1      NAMELIST /SIG1/  IGMETHOD, IGADDOUTP, IGSOURCE, IGBCOVERWRITE,   &
!/IG1                      IGMAXFREQ, IGSTERMS, IGSWELLMAX,                &
!/IG1                      IGSOURCEATBP, IGKDMIN, IGFIXEDDEPTH, IGEMPIRICAL 
!/LN1      NAMELIST /SLN1/ CLIN, RFPM, RFHF
!/ST1      NAMELIST /SIN1/ CINP
!/ST2      NAMELIST /SIN2/ ZWND, SWELLF, STABSH, STABOF, CNEG, CPOS, FNEG
!/ST3      NAMELIST /SIN3/ ZWND, ALPHA0, Z0MAX, BETAMAX, SINTHP, ZALP, &
!/ST3                      SWELLF
!/ST4      NAMELIST /SIN4/ ZWND, ALPHA0, Z0MAX, BETAMAX, SINTHP, ZALP, &
!/ST4                      TAUWSHELTER, SWELLFPAR, SWELLF,                 &
!/ST4                      SWELLF2, SWELLF3, SWELLF4, SWELLF5, SWELLF6,    &
!/ST4                      SWELLF7, Z0RAT, SINBR
!/NL1      NAMELIST /SNL1/ LAMBDA, NLPROP, KDCONV, KDMIN,                  &
!/NL1                      SNLCS1, SNLCS2, SNLCS3
!/NL2      NAMELIST /SNL2/ IQTYPE, TAILNL, NDEPTH
!/NL2      NAMELIST /ANL2/ DEPTHS
!/NL3      NAMELIST /SNL3/ NQDEF, MSC, NSC, KDFD, KDFS
!/NL3      NAMELIST /ANL3/ QPARMS
!/NL4      NAMELIST /SNL4/ INDTSA, ALTLP
!/NLS      NAMELIST /SNLS/ A34, FHFC, DNM, FC1, FC2, FC3
!/ST1      NAMELIST /SDS1/ CDIS, APM
!/ST2      NAMELIST /SDS2/ SDSA0, SDSA1, SDSA2, SDSB0, SDSB1, PHIMIN
!/ST3      NAMELIST /SDS3/ SDSC1, WNMEANP, FXPM3, FXFM3, SDSDELTA1,        &
!/ST3                      SDSDELTA2
!/ST4      NAMELIST /SDS4/ SDSC1, WNMEANP, WNMEANPTAIL, FXPM3, FXFM3,      &
!/ST4                      FXFMAGE, SDSC2, SDSCUM, SDSSTRAIN, SDSC4,       &
!/ST4                      SDSC5, SDSC6, SDSBR, SDSBR2, SDSP, SDSISO,      &
!/ST4                      SDSBCK, SDSABK, SDSPBK, SDSBINT, SDSHCK,        &
!/ST4                      SDSDTH, SDSCOS, SDSBRF1, SDSBRFDF,              &
!/ST4                      SDSBM0, SDSBM1, SDSBM2, SDSBM3, SDSBM4,         &
!/ST4                      SDSHFGEN, SDSLFGEN, WHITECAPWIDTH, FXINCUT, FXDSCUT
!/ST6      NAMELIST /SIN6/ SINA0
!/ST6      NAMELIST /SDS6/ SDSET, SDSA1, SDSA2, SDSP1, SDSP2
!/ST6      NAMELIST /SWL6/ SWLB1, CSTB1
!/BT1      NAMELIST /SBT1/ GAMMA
!/BT4      NAMELIST /SBT4/ SEDMAPD50, SED_D50_UNIFORM, RIPFAC1,            &
!/BT4                      RIPFAC2, RIPFAC3, RIPFAC4, SIGDEPTH,            &
!/BT4                      BOTROUGHMIN, BOTROUGHFAC
!/DB1      NAMELIST /SDB1/ BJALFA, BJGAM, BJFLAG
!/PR1      NAMELIST /PRO1/ CFLTM
!/PR2      NAMELIST /PRO2/ CFLTM, DTIME, LATMIN
!
!/SMC      NAMELIST /PSMC/ CFLTM, DTIME, LATMIN, RFMAXD, UNO3, AVERG, &
!/SMC                      LvSMC, ISHFT, JEQT,   NBISMC
! 
!/PR3      NAMELIST /PRO3/ CFLTM, WDTHCG, WDTHTH
           NAMELIST /UNST/ UGOBCAUTO, UGOBCDEPTH,                     &
                           EXPFSN, EXPFSPSI, EXPFSFCT,                &
                           IMPFSN
           NAMELIST /MISC/ CICE0, CICEN, LICE, XSEED, FLAGTR, XP, XR, & 
                      XFILT, PMOVE, IHM, HSPM, WSM, WSC, FLC, FMICHE, &
                      RWNDC, FACBERG, NOSW, GSHIFT, WCOR1, WCOR2,     &
                      STDX, STDY, STDT, ICEHMIN, ICEHINIT, ICEDISP,   &
                      ICEWIND
           NAMELIST /OUTS/ P2SF, I1P2SF, I2P2SF,                      &
                             US3D, I1US3D, I2US3D,                    &
                             E3D, I1E3D, I2E3D,                       &
                             TH1MF, I1TH1M, I2TH1M,                   &
                             STH1MF, I1STH1M, I2STH1M,                &
                             TH2MF, I1TH2M, I2TH2M,                   &
                             STH2MF, I1STH2M, I2STH2M
!/IS1           NAMELIST /SIS1/ ISC1, ISC2
!/IS2           NAMELIST /SIS2/ ISC1, IS2C2, IS2C3, IS2BACKSCAT, IS2BREAK,  &
!/IS2                           IS2DISP, IS2FRAGILITY, IS2CONC, IS2DMIN,    &
!/IS2                           IS2DAMP, IS2DUPDATE, IS2CREEPB, IS2CREEPC,  &
!/IS2                           IS2CREEPD, IS2CREEPN, IS2BREAKE, IS2BREAKF
!/REF1           NAMELIST /REF1/ REFCOAST, REFFREQ, REFMAP,  REFMAPD,       &
!/REF1                          REFSUBGRID, REFICEBERG,                     &
!/REF1                          REFCOSP_STRAIGHT, REFSLOPE, REFRMAX,        &
!/REF1                          REFFREQPOW
!/
!/ ------------------------------------------------------------------- /
!/
      DATA YESXNO / 'YES/--' , '---/NO' /
!/O0      FLNMLO = .TRUE.
!/STAB2      FLSTB2 = .TRUE.
!
!/SMC  !!Li  Switch off regular grid lines by setting the logical
!/SMC        RGLGRD = .FALSE.
!
!--- - - - - - - - - - - - - - - - - - - - - - - - - - - - - - - - - -
! 1.  Set up grid storage structure
!
      CALL W3NMOD ( 1, 6, 6 )
      CALL W3SETG ( 1, 6, 6 )
      CALL W3NOUT (    6, 6 )
      CALL W3SETO ( 1, 6, 6 )
!
!--- - - - - - - - - - - - - - - - - - - - - - - - - - - - - - - - - -
! 2.  IO set-up.
!
      NDSI   = 10
      NDSS   = 90
      NDSM   = 20
!
      J      = LEN_TRIM(FNMPRE)
      OPEN (NDSI,FILE=FNMPRE(:J)//'ww3_grid.inp',STATUS='OLD',        &
            ERR=2000,IOSTAT=IERR)
!
      NDSTRC =  6
      NTRACE =  10
      CALL ITRACE ( NDSTRC, NTRACE )
!
!/S      CALL STRACE (IENT, 'W3GRID')
      WRITE (NDSO,900)
!
!--- - - - - - - - - - - - - - - - - - - - - - - - - - - - - - - - - -
! 3.a Interpolation table for dispersion relation.
!
      CALL DISTAB
!
!--- - - - - - - - - - - - - - - - - - - - - - - - - - - - - - - - - -
! 3.b Table for friction factors
!
      CALL TABU_FW
!
!--- - - - - - - - - - - - - - - - - - - - - - - - - - - - - - - - - -
! 4   Read and process input file up to spectrum
! 4.a Get comment character
!
      REWIND (NDSI)
      READ (NDSI,'(A)',END=2001,ERR=2002) COMSTR
      IF (COMSTR.EQ.' ') COMSTR = '$'
      WRITE (NDSO,901) COMSTR
!
! 4.b Name of grid :
!
      CALL NEXTLN ( COMSTR , NDSI , NDSE )
      READ (NDSI,*,END=2001,ERR=2002) GNAME
      WRITE (NDSO,902) GNAME
!
! 4.c Define spectrum
!
      CALL NEXTLN ( COMSTR , NDSI , NDSE )
      READ (NDSI,*,END=2001,ERR=2002) RXFR, RFR1, NKI, NTHI, RTH0
      NK     = NKI
      NK2    = NKI + 2
      NTH    = NTHI
      NSPEC  = NK * NTH
      XFR    = MAX ( RXFR , 1.00001 )
      FR1    = MAX ( RFR1 , 1.E-6 )
      DTH    = TPI / REAL(NTH)
      RTH0   = MAX ( -0.5 , MIN ( 0.5 , RTH0 ) )
      WRITE (NDSO,903) NTH, DTH*RADE
      WRITE (NDSO,904) 360./REAL(NTH)*RTH0
      WRITE (NDSO,905) NK, FR1, FR1*XFR**(NK-1), XFR
!
      CALL W3DIMS ( 1, NK, NTH, NDSE, NDST )
!
!--- - - - - - - - - - - - - - - - - - - - - - - - - - - - - - - - - -
! 5.  Initialize spectral parameters.
! 5.a Directions :
!
      DO ITH=1, NTH
        TH  (ITH) = DTH * ( RTH0 + REAL(ITH-1) )
        ESIN(ITH) = SIN ( TH(ITH) )
        ECOS(ITH) = COS ( TH(ITH) )
        IF ( ABS(ESIN(ITH)) .LT. 1.E-5 ) THEN
          ESIN(ITH) = 0.
          IF ( ECOS(ITH) .GT. 0.5 ) THEN
            ECOS(ITH) =  1.
          ELSE
            ECOS(ITH) = -1.
            END IF
          END IF
        IF ( ABS(ECOS(ITH)) .LT. 1.E-5 ) THEN
          ECOS(ITH) = 0.
          IF ( ESIN(ITH) .GT. 0.5 ) THEN
            ESIN(ITH) =  1.
          ELSE
            ESIN(ITH) = -1.
            END IF
          END IF
        ES2 (ITH) = ESIN(ITH)**2
        EC2 (ITH) = ECOS(ITH)**2
        ESC (ITH) = ESIN(ITH)*ECOS(ITH)
        END DO
!
      DO IK=2, NK+1
        ITH0   = (IK-1)*NTH
        DO ITH=1, NTH
          ESIN(ITH0+ITH) = ESIN(ITH)
          ECOS(ITH0+ITH) = ECOS(ITH)
          ES2 (ITH0+ITH) = ES2 (ITH)
          EC2 (ITH0+ITH) = EC2 (ITH)
          ESC (ITH0+ITH) = ESC (ITH)
          END DO
        END DO
!
!   b Frequencies :
!
      SIGMA   = FR1 * TPI / XFR**2
      SXFR    = 0.5 * (XFR-1./XFR)
!
      DO IK=0, NK+1
        SIGMA    = SIGMA * XFR
        SIG (IK) = SIGMA
        DSIP(IK) = SIGMA * SXFR
        END DO
!
      DSII( 1) = 0.5 * SIG( 1) * (XFR-1.)
      DO IK=2, NK-1
        DSII(IK) = DSIP(IK)
        END DO
      DSII(NK) = 0.5 * SIG(NK) * (XFR-1.) / XFR
!
      DO IK=1, NK
        DDEN(IK) = DTH * DSII(IK) * SIG(IK)
        END DO
!
      DO ISP=1, NSPEC
        IK         = 1 + (ISP-1)/NTH
        SIG2 (ISP) = SIG (IK)
        DDEN2(ISP) = DDEN(IK)
        END DO
!
!--- - - - - - - - - - - - - - - - - - - - - - - - - - - - - - - - - -
! 6   Read and process input file up to numerical parameters
! 6.a Set model flags and time steps
!
      WRITE (NDSO,910)
      CALL NEXTLN ( COMSTR , NDSI , NDSE )
      READ (NDSI,*,END=2001,ERR=2002)                                 &
        FLDRY, FLCX, FLCY, FLCTH, FLCK, FLSOU
!
      IYN = 2
      IF ( FLDRY ) IYN(1) = 1
      IF ( FLCX  ) IYN(2) = 1
      IF ( FLCY  ) IYN(3) = 1
      IF ( FLCTH ) IYN(4) = 1
      IF ( FLCK  ) IYN(5) = 1
      IF ( FLSOU ) IYN(6) = 1
!
      WRITE (NDSO,911) (YESXNO(IYN(IFL)),IFL=1,NFL)
!
      IF ( .NOT. (FLDRY.OR.FLCX.OR.FLCY.OR.FLCK.OR.FLCTH.OR.FLSOU) ) THEN
          WRITE (NDSE,1010)
          CALL EXTCDE ( 2 )
        END IF
!
      CALL NEXTLN ( COMSTR , NDSI , NDSE )
      READ (NDSI,*,END=2001,ERR=2002) DTMAX, DTCFL, DTCFLI, DTMIN
!/SEC1      IF (DTMAX.LT.1.) THEN 
!/SEC1        NITERSEC1=CEILING(1./DTMAX)
!/SEC1        WRITE (NDSO,913) NITERSEC1
!/SEC1      ELSE 
!/SEC1        NITERSEC1=1
!/SEC1        END IF

      DTMAX  = MAX ( 1. , DTMAX )
!
! Commented to allow very high resolution zooms
!
!      DTCFL  = MAX ( 1. , DTCFL  )
!      DTCFLI = MIN ( DTMAX , MAX ( 1. , DTCFLI ) )
      DTMIN  = MIN ( DTMAX , MAX ( 0. , DTMIN  ) )
      WRITE (NDSO,912) DTMAX, DTCFL, DTCFLI, DTMIN
!
! 6.b Set / select source term package
!
      NRLIN  = 0
      NRSRCE = 0
      NRNL   = 0
      NRBT   = 0
      NRIC   = 0
      NRIS   = 0
      NRDB   = 0
      NRTR   = 0
      NRBS   = 0
      NRXX   = 0
!
      FLLIN  = .TRUE.
      FLINDS = .TRUE.
      FLNL   = .TRUE.
      FLBT   = .TRUE.
      FLIC   = .FALSE.
      FLIS   = .FALSE.
      FLDB   = .TRUE.
      FLTR   = .TRUE.
      FLBS   = .TRUE.
      FLREF  = .FALSE.
      FLXX   = .TRUE.
!
!/LN0      NRLIN  = NRLIN + 1
!/LN0      FLLIN  = .FALSE.
!/SEED      NRLIN  = NRLIN + 1
!/LN1      NRLIN  = NRLIN + 1
!/LNX      NRLIN  = NRLIN + 1
!
!/ST0      NRSRCE = NRSRCE + 1
!/ST0      FLINDS = .FALSE.
!/ST1      NRSRCE = NRSRCE + 1
!/ST2      NRSRCE = NRSRCE + 1
!/ST2      FLTC96 = .TRUE.
!/ST3      NRSRCE = NRSRCE + 1
!/ST4      NRSRCE = NRSRCE + 1
!/ST4      FLST4  = .TRUE.
!/ST6      NRSRCE = NRSRCE + 1
!/ST6      FLST6  = .TRUE.
!/STX      NRSRCE = NRSRCE + 1
!
!/NL0      NRNL   = NRNL + 1
!/NL0      FLNL   = .FALSE.
!/NL1      NRNL   = NRNL + 1
!/NL2      NRNL   = NRNL + 1
!/NL3      NRNL   = NRNL + 1
!/NL4      NRNL   = NRNL + 1
!/NLX      NRNL   = NRNL + 1
!
!/BT0      NRBT   = NRBT + 1
!/BT0      FLBT   = .FALSE.
!/BT1      NRBT   = NRBT + 1
!/BT4      NRBT   = NRBT + 1
!/BT8      NRBT   = NRBT + 1
!/BT9      NRBT   = NRBT + 1
!/BTX      NRBT   = NRBT + 1
!
!/IC1      NRIC   = NRIC + 1
!/IC1      FLIC   = .TRUE.
!/IC2      NRIC   = NRIC + 1
!/IC2      FLIC   = .TRUE.
!/IC3      NRIC   = NRIC + 1
!/IC3      FLIC   = .TRUE.
!/IC4      NRIC   = NRIC + 1
!/IC4      FLIC   = .TRUE.
!
!/IS1      NRIS   = NRIS + 1
!/IS1      FLIS   = .TRUE.
!/IS2      NRIS   = NRIS + 1
!/IS2      FLIS   = .TRUE.
!
!/DB0      NRDB   = NRDB + 1
!/DB0      FLDB   = .FALSE.
!/DB1      NRDB   = NRDB + 1
!/DBX      NRDB   = NRDB + 1
!
!/TR0      NRTR   = NRTR + 1
!/TR0      FLTR   = .FALSE.
!/TR1      NRTR   = NRTR + 1
!/TRX      NRTR   = NRTR + 1
!
!/BS0      NRBS   = NRBS + 1
!/BS0      FLBS   = .FALSE.
!/BS1      NRBS   = NRBS + 1
!/BSX      NRBS   = NRBS + 1
!
!/REF1      FLREF   = .TRUE.
!
!/XX0      NRXX   = NRXX + 1
!/XX0      FLXX   = .FALSE.
!/XXX      NRXX   = NRXX + 1
!
      IF ( .NOT.FLLIN .AND.  .NOT.FLINDS .AND.  .NOT.FLNL .AND.        &
           .NOT.FLBT  .AND.  .NOT.FLIC   .AND.  .NOT.FLIS .AND.        &
           .NOT.FLDB  .AND.  .NOT.FLTR   .AND.  .NOT.FLBS .AND.        &
           .NOT.FLXX  .AND.  .NOT.FLREF  .AND.  FLSOU ) THEN
          WRITE (NDSE,1020)
          CALL EXTCDE ( 10 )
        END IF
!
      IF ( ( FLLIN .OR. FLINDS .OR. FLNL .OR. FLBT .OR. FLDB .OR.     &
             FLTR .OR. FLBS .OR. FLREF .OR. FLXX .OR. FLIC )          &
             .AND. .NOT.FLSOU ) THEN
          WRITE (NDSE,1021)
        END IF
!
      IF ( NRLIN .NE. 1 ) THEN
          WRITE (NDSE,1022) NRLIN
          CALL EXTCDE ( 11 )
        END IF
!
      IF ( NRSRCE .NE. 1 ) THEN
          WRITE (NDSE,1023) NRSRCE
          CALL EXTCDE ( 12 )
        END IF
!
      IF ( NRNL .NE. 1 ) THEN
          WRITE (NDSE,1024) NRNL
          CALL EXTCDE ( 13 )
        END IF
!
      IF ( NRBT .NE. 1 ) THEN
          WRITE (NDSE,1025) NRBT
          CALL EXTCDE ( 14 )
        END IF
!
      IF ( NRDB .NE. 1 ) THEN
          WRITE (NDSE,1026) NRDB
          CALL EXTCDE ( 15 )
        END IF
!
      IF ( NRTR .NE. 1 ) THEN
          WRITE (NDSE,1027) NRTR
          CALL EXTCDE ( 16 )
        END IF
!
      IF ( NRBS .NE. 1 ) THEN
          WRITE (NDSE,1028) NRBS
          CALL EXTCDE ( 17 )
        END IF
!
      IF ( NRXX .NE. 1 ) THEN
          WRITE (NDSE,1029) NRXX
          CALL EXTCDE ( 18 )
        END IF
!
      IF ( NRIC .GT. 1 ) THEN
          WRITE (NDSE,1034) NRIC
          CALL EXTCDE ( 19 )
        END IF
!
      IF ( NRIS .GT. 1 ) THEN
          WRITE (NDSE,1036) NRIS
          CALL EXTCDE ( 26 )
        END IF
!
! 6.c Pre-process namelists into scratch file
!
      WRITE (NDSO,915)
      J      = LEN_TRIM(FNMPRE)
      OPEN (NDSS,FILE=FNMPRE(:J)//'ww3_grid.scratch',FORM='FORMATTED')
!
      DO
        CALL NEXTLN ( COMSTR , NDSI , NDSE )
        READ (NDSI,'(A)',END=2001,ERR=2002) LINE
        IF ( LINE(1:16) .EQ. 'END OF NAMELISTS' ) THEN
            EXIT
          ELSE
            WRITE (NDSS,'(A)') LINE
          ENDIF
        END DO
!
      WRITE (NDSO,916)
!
! 6.d Define Sin.
! 6.d.1 Stresses
!
!/FLX1      WRITE (NDSO,810)
!/FLX2      WRITE (NDSO,810)
!
!/FLX2      CINXSI =    0.20
!/FLX2      NITTIN =    3
!/FLX3      CINXSI =    0.20
!/FLX3      NITTIN =    3
!/FLX3      CDMAX  =    2.5E-3
!/FLX3      CTYPE  =    0
!
!/FLX3      CALL READNL ( NDSS, 'FLX3', STATUS )
!/FLX3      WRITE (NDSO,810) STATUS
!/FLX3      CDMAX  = MAX ( 0. , CDMAX )
!/FLX3      IF ( CTYPE .EQ. 1 ) THEN
!/FLX3          TYPEID = 'hyperbolic tangent'
!/FLX3        ELSE
!/FLX3          CTYPE = 0
!/FLX3          TYPEID = 'discontinuous     '
!/FLX3        END IF
!/FLX3      WRITE (NDSO,811) CDMAX*1.E3, TYPEID
!/FLX3      CD_MAX =    CDMAX
!/FLX3      CAP_ID =    CTYPE
!
!/FLX4      CDFAC  = 1.0E-4
!/FLX4      CALL READNL ( NDSS, 'FLX4', STATUS )
!/FLX4      WRITE (NDSO,810) STATUS
!/FLX4      WRITE (NDSO,811) CDFAC
!/FLX4      FLX4A0 = CDFAC
!
! 6.d.2 Linear input
!
!/LN0      WRITE (NDSO,820)
!/SEED      WRITE (NDSO,820)
!/LNX      WRITE (NDSO,820)
!
!/LN1      CLIN   = 80.
!/LN1      RFPM   =  1.
!/LN1      RFHF   =  0.5
!
!/LN1      CALL READNL ( NDSS, 'SLN1', STATUS )
!/LN1      WRITE (NDSO,820) STATUS
!/LN1      CLIN   = MAX (0.,CLIN)
!/LN1      RFPM   = MAX (0.,RFPM)
!/LN1      RFHF   = MAX(0.,MIN (1.,RFHF))
!/LN1      WRITE (NDSO,821) CLIN, RFPM, RFHF
!/LN1      SLNC1  = CLIN * (DAIR/DWAT)**2 / GRAV**2
!/LN1      FSPM   = RFPM
!/LN1      FSHF   = RFHF
!
! 6.d.3 Exponential input
!
!/ST0      WRITE (NDSO,920)
!/STX      WRITE (NDSO,920)
!
!/ST1      CINP   =    0.25
!/ST2      ZWND   =   10.
!/ST2      SWELLF =    0.100
!/ST2      STABSH =    1.38
!/ST2      STABOF =   -0.01
!/ST2      CNEG   =   -0.1
!/ST2      CPOS   =    0.1
!/ST2      FNEG   =  150.
!
!/ST3      ZWND   =   10.
!/ST3      ALPHA0 = 0.0095
!/ST3      Z0MAX = 0.0    
!/ST3      BETAMAX  = 1.2       !  default WAM4 / WAM4 + is 1.2 with rhow=1000
!/ST3      SINTHP   = 2.     
!/ST3      SWELLF = 0.         
!/ST3      ZALP   = 0.0110
!
!/ST4      ZWND   =   10.
!/ST4      ALPHA0 = 0.0095
!/ST4      Z0MAX = 0.0    
!/ST4      Z0RAT = 0.04 
!/ST4      BETAMAX   = 1.43     
!/ST4      SINTHP    = 2.     
!/ST4      SWELLF    = 0.66     
!/ST4      SWELLFPAR = 1
!/ST4      SWELLF2 = -0.018
!/ST4      SWELLF3 = 0.022
!/ST4      SWELLF4 = 1.5E5
!/ST4      SWELLF5 = 1.2
!/ST4      SWELLF6 = 0.
!/ST4      SWELLF7 = 360000. 
!/ST4      TAUWSHELTER = 0.3
!/ST4      ZALP   = 0.006
!/ST4      SINBR   = 0.
!
!/ST6      SINA0  = 0.09
!
!/ST1      CALL READNL ( NDSS, 'SIN1', STATUS )
!/ST1      WRITE (NDSO,920) STATUS
!/ST1      WRITE (NDSO,921) CINP
!/ST1      SINC1  = 28. * CINP * DAIR / DWAT
!
!/ST2      CALL READNL ( NDSS, 'SIN2', STATUS )
!/ST2      WRITE (NDSO,920) STATUS
!/ST2      IF ( SWELLF.LT.0. .OR. SWELLF.GT.1. ) SWELLF = 1.
!/ST2      WRITE (NDSO,921) ZWND, SWELLF
!/ST2      IF ( STABSH .LT. 0.1 ) STABSH = 1.
!/ST2      IF ( CNEG*CPOS .EQ. 0. ) THEN
!/ST2          CNEG   = 0.
!/ST2          CPOS   = 0.
!/ST2          FNEG   = 0.
!/ST2          FPOS   = 0.
!/ST2        ELSE
!/ST2          CPOS   = - ABS(CPOS) * ABS(CNEG)/CNEG
!/ST2          FNEG   = - MAX(1.,ABS(FNEG))
!/ST2          FPOS   = FNEG * CNEG/CPOS
!/ST2        END IF
!/STAB2      WRITE (NDSO,1921) STABSH, STABOF, CNEG, CPOS, FNEG, FPOS
!/ST2      ZWIND  = ZWND
!/ST2      FSWELL = SWELLF
!/ST2      SHSTAB = STABSH
!/ST2      OFSTAB = STABOF
!/ST2      CCNG   = CNEG
!/ST2      CCPS   = CPOS
!/ST2      FFNG   = FNEG
!/ST2      FFPS   = FPOS
!
!/ST3      CALL READNL ( NDSS, 'SIN3', STATUS )
!/ST3      WRITE (NDSO,920) STATUS
!/ST3      WRITE (NDSO,921) ALPHA0, BETAMAX, SINTHP, Z0MAX, ZALP, ZWND, &
!/ST3           SWELLF
!/ST3      ZZWND  = ZWND
!/ST3      AALPHA = ALPHA0
!/ST3      BBETA  = BETAMAX
!/ST3      SSINTHP  = SINTHP
!/ST3      ZZ0MAX  = Z0MAX
!/ST3      ZZALP  = ZALP
!/ST3      SSWELLF(1) = SWELLF
!
!/ST4      CALL READNL ( NDSS, 'SIN4', STATUS )
!/ST4      WRITE (NDSO,920) STATUS
!/ST4      WRITE (NDSO,921) ALPHA0, BETAMAX, SINTHP, Z0MAX, ZALP, ZWND, TAUWSHELTER, &
!/ST4           SWELLFPAR, SWELLF, SWELLF2, SWELLF3, SWELLF4, SWELLF5, &
!/ST4           SWELLF6, SWELLF7, Z0RAT
!/ST4      ZZWND  = ZWND
!/ST4      AALPHA = ALPHA0
!/ST4      BBETA  = BETAMAX
!/ST4      SSINBR  = SINBR
!/ST4      SSINTHP  = SINTHP
!/ST4      ZZ0MAX  = Z0MAX
!/ST4      ZZ0RAT  = Z0RAT
!/ST4      ZZALP  = ZALP
!/ST4      TTAUWSHELTER = TAUWSHELTER
!/ST4      SSWELLF(1) = SWELLF
!/ST4      SSWELLF(2) = SWELLF2
!/ST4      SSWELLF(3) = SWELLF3
!/ST4      SSWELLF(4) = SWELLF4
!/ST4      SSWELLF(5) = SWELLF5
!/ST4      SSWELLF(6) = SWELLF6
!/ST4      SSWELLF(7) = SWELLF7
!/ST4      SSWELLFPAR = SWELLFPAR
!
!/ST6      CALL READNL ( NDSS, 'SIN6', STATUS )
!/ST6      WRITE (NDSO,920) STATUS
!/ST6      SIN6A0 = SINA0
!/ST6      J = 1
!/ST6      IF ( SIN6A0.LE.0. ) J = 2
!/ST6      WRITE (NDSO,921) YESXNO(J), SIN6A0
!
! 6.e Define Snl.
!
!/NL0      WRITE (NDSO,922)
!
!/NL1      LAMBDA =  0.25
!/NL1      IF ( FLTC96 ) THEN
!/NL1          NLPROP =  1.00E7
!/NL1        ELSE IF ( FLST4 ) THEN
!/NL1          NLPROP =  2.50E7
!/NL1        ELSE IF ( FLST6 ) THEN
!/NL1          NLPROP =  3.00E7
!/NL1        ELSE
!/NL1          NLPROP =  2.78E7
!/NL1        END IF
!
!/NL1      KDCONV =  0.75
!/NL1      KDMIN  =  0.50
!/NL1      SNLCS1 =  5.5
!/NL1      SNLCS2 =  0.833
!/NL1      SNLCS3 = -1.25
!
!/NL1      CALL READNL ( NDSS, 'SNL1', STATUS )
!/NL1      WRITE (NDSO,922) STATUS
!/NL1      WRITE (NDSO,923) LAMBDA, NLPROP, KDCONV, KDMIN,            &
!/NL1                       SNLCS1, SNLCS2, SNLCS3
!/NL1      SNLC1  = NLPROP / GRAV**4
!/NL1      LAM    = LAMBDA
!/NL1      KDCON  = KDCONV
!/NL1      KDMN   = KDMIN
!/NL1      SNLS1  = SNLCS1
!/NL1      SNLS2  = SNLCS2
!/NL1      SNLS3  = SNLCS3
!
!/ST0      FACHF  = 5.
!/ST1      FACHF  = 4.5
!/ST2      FACHF  = 5.
!/ST3      FACHF  = 5.
!/ST4      FACHF  = 5.
!/ST6      FACHF  = 5.
!/STX      FACHF  = 5.
!/NL2      IQTYPE =  2
!/NL2      TAILNL = -FACHF
!/NL2      NDEPTH =  0
!/NL3      NQDEF  =  0
!/NL3      MSC    =  0.
!/NL3      NSC    = -3.5
!/NL3      KDFD   =  0.20
!/NL3      KDFS   =  5.00
!/NL4      INDTSA =  1
!/NL4      ALTLP  =  2
!/NLS      A34    =  0.05
!/NLS      FHFC   =  1.E10
!/NLS      DNM    =  0.25
!/NLS      FC1    =  1.25
!/NLS      FC2    =  1.50
!/NLS      FC3    =  6.00
!
!/NL2      CALL READNL ( NDSS, 'SNL2', STATUS )
!/NL2      WRITE (NDSO,922) STATUS
!/NL2      TAILNL = MIN ( MAX ( TAILNL, -5. ) , -4. )
!/NL2      IF ( IQTYPE .EQ. 3 ) THEN
!/NL2          WRITE (NDSO,923) 'Shallow water', TAILNL
!/NL2        ELSE IF ( IQTYPE .EQ. 2 ) THEN
!/NL2          WRITE (NDSO,923) 'Deep water with scaling', TAILNL
!/NL2        ELSE
!/NL2          WRITE (NDSO,923) 'Deep water', TAILNL
!/NL2          IQTYPE = 1
!/NL2        END IF
!
!/NL2      IF ( IQTYPE .NE. 3 ) THEN
!/NL2          NDEPTH = 1
!/NL2          ALLOCATE ( MPARS(1)%SNLPS%DPTHNL(NDEPTH) )
!/NL2          DPTHNL => MPARS(1)%SNLPS%DPTHNL
!/NL2          DPTHNL = 1000.
!/NL2        ELSE
!/NL2          IF ( NDEPTH .EQ. 0 ) NDEPTH = 7
!/NL2          NDEPTH = MAX ( 1 , NDEPTH )
!/NL2          ALLOCATE ( MPARS(1)%SNLPS%DPTHNL(NDEPTH) )
!/NL2          DPTHNL => MPARS(1)%SNLPS%DPTHNL
!/NL2          DPTHNL(1) = 640.
!/NL2          DPTHNL(NDEPTH) = 10.
!/NL2          IF ( NDEPTH .GT. 1 ) THEN
!/NL2              DPTFAC = (DPTHNL(NDEPTH)/DPTHNL(1))**(1./(REAL(NDEPTH-1)))
!/NL2              DO IDEPTH=2, NDEPTH-1
!/NL2                DPTHNL(IDEPTH) = DPTFAC*DPTHNL(IDEPTH-1)
!/NL2                END DO
!/NL2            END IF
!/NL2          CALL READNL ( NDSS, 'ANL2', STATUS )
!/NL2          WRITE (NDSO,1923) NDEPTH, DPTHNL(1:MIN(5,NDEPTH))
!/NL2          IF (NDEPTH .GT. 5 )WRITE (NDSO,2923) DPTHNL(6:NDEPTH)
!/NL2        END IF
!/NL2      WRITE (NDST,*)
!/NL2      IQTPE  = IQTYPE
!/NL2      NDPTHS = NDEPTH
!/NL2      NLTAIL = TAILNL
!
!/NL3      CALL READNL ( NDSS, 'SNL3', STATUS )
!/NL3      WRITE (NDSO,922) STATUS
!!/NL3      MSC    = MAX ( 0. , MIN ( 8. , MSC ) )  ! Disabled HLT ca. 2009
!/NL3      KDFD   = MAX ( 0.001 , MIN ( 10. , KDFD ) )
!/NL3      KDFS   = MAX ( KDFD , MIN ( 10. , KDFS ) )
!/NL3      WRITE (NDSO,923) MSC, NSC, KDFD, KDFS
!
!/NL3      NQDEF  = MAX ( 0 , NQDEF )
!/NL3      IF ( NQDEF .EQ. 0 ) THEN
!/NL3          NQDEF  = 1
!/NL3          QPARMS(1:5) = [ 0.25 , 0.00, -1., 1.E7, 0.00 ]
!/NL3        ELSE
!/NL3          DO J=1, NQDEF
!/NL3            QPARMS((J-1)*5+1:J*5) = [ 0.25, 0.00, -1., 1.E7, 1.E6 ]
!/NL3            END DO
!/NL3          CALL READNL ( NDSS, 'ANL3', STATUS )
!/NL3        END IF
!/NL3      DO J=1, NQDEF
!/NL3        QPARMS((J-1)*5+1) = MAX(0.,MIN (LAMMAX,QPARMS((J-1)*5+1)))
!/NL3        QPARMS((J-1)*5+2) = MAX(0.,MIN (QPARMS((J-1)*5+1),        &
!/NL3                                        QPARMS((J-1)*5+2)))
!/NL3        QPARMS((J-1)*5+3) = MIN (DELTHM,QPARMS((J-1)*5+3))
!/NL3        QPARMS((J-1)*5+4) = MAX (0.,QPARMS((J-1)*5+4))
!/NL3        QPARMS((J-1)*5+5) = MAX (0.,QPARMS((J-1)*5+5))
!/NL3        END DO
!/NL3      WRITE (NDSO,1923) NQDEF
!/NL3      WRITE (NDSO,2923) QPARMS(1:NQDEF*5)
!/NL3      WRITE (NDSO,*)
!/NL3      SNLNQ  = NQDEF
!/NL3      SNLMSC = MSC
!/NL3      SNLNSC = NSC
!/NL3      SNLSFD = SQRT ( KDFD * TANH(KDFD) )
!/NL3      SNLSFS = SQRT ( KDFS * TANH(KDFS) )
!/NL3      ALLOCATE ( MPARS(1)%SNLPS%SNLL(NQDEF),                     &
!/NL3                 MPARS(1)%SNLPS%SNLM(NQDEF),                     &
!/NL3                 MPARS(1)%SNLPS%SNLT(NQDEF),                     &
!/NL3                 MPARS(1)%SNLPS%SNLCD(NQDEF),                    &
!/NL3                 MPARS(1)%SNLPS%SNLCS(NQDEF) )
!/NL3      SNLL   => MPARS(1)%SNLPS%SNLL
!/NL3      SNLL   = QPARMS(1:NQDEF*5:5)
!/NL3      SNLM   => MPARS(1)%SNLPS%SNLM
!/NL3      SNLM   = QPARMS(2:NQDEF*5:5)
!/NL3      SNLT   => MPARS(1)%SNLPS%SNLT
!/NL3      SNLT   = QPARMS(3:NQDEF*5:5)
!/NL3      SNLCD  => MPARS(1)%SNLPS%SNLCD
!/NL3      SNLCD  = QPARMS(4:NQDEF*5:5)
!/NL3      SNLCS  => MPARS(1)%SNLPS%SNLCS
!/NL3      SNLCS  = QPARMS(5:NQDEF*5:5)
!
!/NL4      CALL READNL ( NDSS, 'SNL4', STATUS )
!/NL4      WRITE (NDSO,922) STATUS
!/NL4      WRITE (NDSO,923) INDTSA, ALTLP
!/NL4      ITSA = INDTSA
!/NL4      IALT = ALTLP
!
!/NLS      CALL READNL ( NDSS, 'SNLS', STATUS )
!/NLS      WRITE (NDSO,9922) STATUS
!/NLS      A34    = MAX ( 0. , MIN ( A34 , ABMAX ) )
!/NLS      FHFC   = MAX ( 0. , FHFC )
!/NLS      DNM    = MAX ( 0., DNM )
!/NLS      WRITE (NDSO,9923) A34, (XFR-1.)*A34, FHFC, DNM, FC1, FC2, FC3
!/NLS      CNLSA  = A34
!/NLS      CNLSC  = FHFC
!/NLS      CNLSFM = DNM
!/NLS      CNLSC1 = FC1
!/NLS      CNLSC2 = FC2
!/NLS      CNLSC3 = FC3
!
! 6.f Define Sds.
!
!/ST0      WRITE (NDSO,924)
!/STX      WRITE (NDSO,924)
!
!/ST1      CDIS   = -2.36E-5
!/ST1      APM    =  3.02E-3
!/ST2      SDSA0  =  4.8
!/ST2      SDSA1  =  1.7e-4
!/ST2      SDSA2  =  2.0
!/ST2      SDSB0  =  0.3e-3
!/ST2      SDSB1  =  0.47
!/ST2      PHIMIN =  0.003
!/ST2      SDSALN =  0.002
!/ST2      FPIMIN =  0.009
!/ST3      SDSC1  = -2.1 !! This is Bidlot et al. 2005,  Otherwise WAM4 uses -4.5
!/ST3      WNMEANP = 0.5 !! This is Bidlot et al. 2005,  Otherwise WAM4 uses -0.5
!/ST3      FXFM3 = 2.5 
!/ST3      FXPM3 = 4.
!/ST3      WNMEANPTAIL = 0.5 
!/ST3      SDSDELTA1 = 0.4 !! This is Bidlot et al. 2005,  Otherwise WAM4 uses 0.5
!/ST3      SDSDELTA2 = 0.6 !! This is Bidlot et al. 2005,  Otherwise WAM4 uses 0.5
!
!/ST4      SDSC1  = 0.0     ! not used in ST4, should be cleaned up                                                             
!/ST4      WNMEANP = 0.5    ! taken from Bidlot et al. 2005
!/ST4      FXFM3 = 2.5 
!/ST4      FXFMAGE = 0. 
!/ST4      FXINCUT = 0. 
!/ST4      FXDSCUT = 0. 
!/ST4      FXPM3 = 4.
!/ST4      WNMEANPTAIL = -0.5 
!/ST4      SDSC2     = -2.2E-5
!/ST4      SDSCUM     = -0.40344
!/ST4      SDSC4     = 1.
!/ST4      SDSC5     = 0. 
!/ST4      SDSC6     = 0.3
!/ST4      SDSBR     = 0.90E-3                                     
!/ST4      SDSBRFDF  = 0
!/ST4      SDSBRF1   = 0.5
!/ST4      SDSP      = 2.   ! this is now fixed in w3sds4, should be cleaned up 
!/ST4      SDSDTH    = 80.
!/ST4      SDSCOS    = 2.
!/ST4      SDSISO    = 2
!/ST4      SDSBM0    = 1.
!/ST4      SDSBM1    = 0.
!/ST4      SDSBM2    = 0.
!/ST4      SDSBM3    = 0.
!/ST4      SDSBM4    = 0.
!/ST4      SDSBR2    = 0.8
!/ST4      SDSBCK    = 0.
!/ST4      SDSABK    = 1.5
!/ST4      SDSPBK    = 4.
!/ST4      SDSBINT   = 0.3
!/ST4      SDSHCK    = 1.5
!/ST4      WHITECAPWIDTH = 0.3
!/ST4      SDSSTRAIN = 0.
!/ST4      SDSHFGEN  = 0.
!/ST4      SDSLFGEN  = 0.
!
!/ST6      SDSET  = .TRUE.
!/ST6      SDSA1  = 3.74E-7
!/ST6      SDSP1  = 4
!/ST6      SDSA2  = 5.24E-6
!/ST6      SDSP2  = 4
!/ST6      CSTB1  = .FALSE.
!/ST6      SWLB1  = 0.0032
!
!/ST1      CALL READNL ( NDSS, 'SDS1', STATUS )
!/ST1      WRITE (NDSO,924) STATUS
!/ST1      WRITE (NDSO,925) CDIS, APM
!/ST1      SDSC1  = TPI * CDIS / APM**2
!
!/ST2      CALL READNL ( NDSS, 'SDS2', STATUS )
!/ST2      WRITE (NDSO,924) STATUS
!/ST2      IF ( PHIMIN .LE. 0. ) THEN
!/ST2          SDSB2  = 0.
!/ST2          SDSB3  = 0.
!/ST2          PHIMIN = SDSB0 + SDSB1*FPIMIN
!/ST2        ELSE
!/ST2          FPIA   = ( PHIMIN - SDSB0 ) / SDSB1
!/ST2          IF ( FPIA .LT. FPIMIN ) THEN
!/ST2              SDSB3  = 4.
!/ST2              SDSB2  = FPIMIN**SDSB3 * (PHIMIN-SDSB0-SDSB1*FPIMIN)
!/ST2            ELSE
!/ST2              FPIB   = MAX ( FPIA-0.0025 , FPIMIN )
!/ST2              DPHID  = MAX ( PHIMIN - SDSB0 - SDSB1*FPIB , 1.E-15 )
!/ST2              SDSB3  = MIN ( 10. , SDSB1*FPIB / DPHID )
!/ST2              SDSB2  = FPIB**SDSB3 * DPHID
!/ST2              FPIMIN = FPIB
!/ST2            END IF
!/ST2        END IF
!/ST2      WRITE (NDSO,925) SDSA0, SDSA1, SDSA2,                      &
!/ST2                       SDSB0, SDSB1, SDSB2, SDSB3, FPIMIN, PHIMIN
!/ST2      CDSA0  = SDSA0
!/ST2      CDSA1  = SDSA1
!/ST2      CDSA2  = SDSA2
!/ST2      CDSB0  = SDSB0
!/ST2      CDSB1  = SDSB1
!/ST2      CDSB2  = SDSB2
!/ST2      CDSB3  = SDSB3
!
!/ST3      CALL READNL ( NDSS, 'SDS3', STATUS )
!/ST3      WRITE (NDSO,924) STATUS
!/ST3      WRITE (NDSO,925) SDSC1, WNMEANP, SDSDELTA1,  &
!/ST3                       SDSDELTA2
!/ST3      SSDSC1   = SDSC1
!/ST3      WWNMEANP   = WNMEANP
!/ST3      FFXFM = FXFM3 * TPI
!/ST3      FFXPM = FXPM3 * GRAV / 28.
!/ST3      WWNMEANPTAIL   = WNMEANPTAIL
!/ST3      DDELTA1   = SDSDELTA1
!/ST3      DDELTA2   = SDSDELTA2
!
!/ST4      CALL READNL ( NDSS, 'SDS4', STATUS )
!/ST4      WRITE (NDSO,924) STATUS
!/ST4      WRITE (NDSO,925) SDSC2, SDSBCK, SDSCUM, WNMEANP 
!/ST4      SSDSC(1)   = SDSLFGEN
!/ST4      SSDSC(2)   = SDSC2
!/ST4      SSDSC(3)   = SDSCUM
!/ST4      SSDSC(4)   = SDSC4
!/ST4      SSDSC(5)   = SDSC5
!/ST4      SSDSC(6)   = SDSC6
!/ST4      SSDSC(7)   = WHITECAPWIDTH
!/ST4      SSDSC(8)   = SDSSTRAIN ! Straining constant ... 
!/ST4      SSDSC(9)   = SDSHFGEN
!/ST4      SSDSBR   = SDSBR
!/ST4      SSDSBRF1 = SDSBRF1
!/ST4      SSDSBRFDF= SDSBRFDF
!/ST4      SSDSBM(0)   = SDSBM0
!/ST4      SSDSBM(1)   = SDSBM1
!/ST4      SSDSBM(2)   = SDSBM2
!/ST4      SSDSBM(3)   = SDSBM3
!/ST4      SSDSBM(4)   = SDSBM4
!/ST4      SSDSBR2  = SDSBR2
!/ST4      SSDSISO  = SDSISO
!/ST4      SSDSCOS  = SDSCOS
!/ST4      SSDSP    = SDSP
!/ST4      SSDSDTH  = SDSDTH
!/ST4      WWNMEANP   = WNMEANP
!/ST4      FFXFM = FXFM3 * TPI
!/ST4      FFXFA = FXFMAGE * TPI
!/ST4      FFXFI = FXINCUT * TPI
!/ST4      FFXFD = FXDSCUT * TPI
!/ST4      FFXPM = FXPM3 * GRAV / 28.
!/ST4      WWNMEANPTAIL   = WNMEANPTAIL
!/ST4      SSDSBCK   = SDSBCK
!/ST4      SSDSABK   = SDSABK
!/ST4      SSDSPBK   = SDSPBK
!/ST4      SSDSBINT  = SDSBINT
!/ST4      SSDSHCK   = SDSHCK
!
!/ST6      CALL READNL ( NDSS, 'SDS6', STATUS )
!/ST6      WRITE (NDSO,924) STATUS
!/ST6      SDS6ET = SDSET
!/ST6      SDS6A1 = SDSA1
!/ST6      SDS6P1 = SDSP1
!/ST6      SDS6A2 = SDSA2
!/ST6      SDS6P2 = SDSP2
!/ST6      J = 2
!/ST6      IF (SDSET) J = 1
!/ST6      WRITE (NDSO,925) YESXNO(J), YESXNO(3-J), SDS6A1, SDS6P1, SDS6A2, SDS6P2
!/ST6
!/ST6      CALL READNL ( NDSS, 'SWL6', STATUS )
!/ST6      WRITE (NDSO,937) STATUS
!/ST6      J = 1
!/ST6      SWL6S6 = SWLB1.GT.0.0
!/ST6      IF (.NOT.SWL6S6) J  = 2
!/ST6      SWL6B1 = SWLB1
!/ST6      SWL6CSTB1 = CSTB1
!/ST6      IF (CSTB1) THEN
!/ST6         WRITE (NDSO,940) YESXNO(J), '(constant)           ' ,SWL6B1
!/ST6      ELSE
!/ST6         WRITE (NDSO,940) YESXNO(J), '(steepness dependent)' ,SWL6B1
!/ST6      END IF
!
! 6.g Define Sbt.
!
!/BT0      WRITE (NDSO,926)
!/BT4      WRITE (NDSO,926)
!/BTX      WRITE (NDSO,926)
!
!/BT1      GAMMA  = -0.067
!
!/BT1      CALL READNL ( NDSS, 'SBT1', STATUS )
!/BT1      WRITE (NDSO,926) STATUS
!/BT1      WRITE (NDSO,927) GAMMA
!/BT1      SBTC1  = 2. * GAMMA / GRAV
!
!/BT4      SEDMAPD50=.FALSE.
!/BT4      SED_D50_UNIFORM=2.E-4  ! default grain size: medium sand 200 microns
!/BT4      RIPFAC1=0.4    ! A1 in Ardhuin et al. 2003
!/BT4      RIPFAC2=-2.5   ! A2 in Ardhuin et al. 2003
!/BT4      RIPFAC3=1.2    ! A3 in Ardhuin et al. 2003
!/BT4      RIPFAC4=0.05   ! A4 in Ardhuin et al. 2003
!/BT4      SIGDEPTH=0.05
!/BT4      BOTROUGHMIN=0.01
!/BT4      BOTROUGHFAC=1.00
!/BT4      CALL READNL ( NDSS, 'SBT4', STATUS )
!/BT4      WRITE (NDSO,926) STATUS
!/BT4      WRITE (NDSO,927) SEDMAPD50, SED_D50_UNIFORM, &
!/BT4                       RIPFAC1,RIPFAC2,RIPFAC3,RIPFAC4,SIGDEPTH,  &
!/BT4                       BOTROUGHMIN, BOTROUGHFAC
!/BT4      SBTCX(1)=RIPFAC1
!/BT4      SBTCX(2)=RIPFAC2
!/BT4      SBTCX(3)=RIPFAC3
!/BT4      SBTCX(4)=RIPFAC4
!/BT4      SBTCX(5)=SIGDEPTH
!/BT4      SBTCX(6)=BOTROUGHMIN
!/BT4      SBTCX(7)=BOTROUGHFAC
!        
!
! 6.h Define Sdb.
!
!/DB0      WRITE (NDSO,928)
!/DBX      WRITE (NDSO,928)
!
!/DB1      BJALFA = 1.
!/DB1      BJGAM  = 0.73
!/DB1      BJFLAG = .TRUE.
!
!/DB1      CALL READNL ( NDSS, 'SDB1', STATUS )
!/DB1      WRITE (NDSO,928) STATUS
!/DB1      BJALFA = MAX ( 0. , BJALFA )
!/DB1      BJGAM  = MAX ( 0. , BJGAM )
!/DB1      WRITE (NDSO,929) BJALFA, BJGAM
!/DB1      IF ( BJFLAG ) THEN
!/DB1          WRITE (NDSO,*) '      Using Hmax/d ratio only.'
!/DB1        ELSE
!/DB1          WRITE (NDSO,*)                                       &
!/DB1             '      Using Hmax/d in Miche style formulation.'
!/DB1        END IF
!/DB1      WRITE (NDSO,*)
!/DB1      SDBC1  = 0.25 * BJALFA
!/DB1      SDBC2  = BJGAM
!/DB1      FDONLY = BJFLAG
!
! 6.i Define Str.
!
!/TR0      WRITE (NDSO,930)
!/TRX      WRITE (NDSO,930)
!
! 6.j Define Sbs.
!
!/BS0      WRITE (NDSO,932)
!/BS1      WRITE (NDSO,932)
!/BSX      WRITE (NDSO,932)
!
! 6.k Define Sxx and Sic.
!
! !/XX0      WRITE (NDSO,934)
!/XXX      WRITE (NDSO,934)
!
!/IC1      WRITE (NDSO,935)
!/IC1         WRITE(NDSO,'(A/A)')'    Sice will be calculated using ' &
!/IC1            //'user-specified ki values.','        Required ' &
!/IC1            //'field input: ice parameter 1.'
!
!/IC2      WRITE (NDSO,935)
!/IC2         WRITE(NDSO,'(A/A)')'    Sice will be calculated using ' &
!/IC2            //'under-ice boundary layer method.','        Required '  &
!/IC2            //'field input: ice parameters 1 and 2.'
!
!/IC3      WRITE (NDSO,935)
!/IC3      WRITE(NDSO,'(A/A)')'    Sice will be calculated using '&
!/IC3            //'Wang and Shen method.','        '&
!/IC3            //'Required field input: ice parameters 1, 2, 3 and 4.'
!
!/IC4      WRITE (NDSO,935)
!/IC4      WRITE(NDSO,'(A/A)')'    Sice will be calculated using '&
!/IC4            //'Empirical method.','        '&
!/IC4            //'Required field input: ice parameters (varies).'
!
! 6.l Read unstructured data 
! initialisation of logical related to unstructured grid
       UGOBCAUTO = .TRUE.
       UGOBCDEPTH= -10.
       EXPFSN    = .TRUE.
       EXPFSPSI  = .FALSE.
       EXPFSFCT  = .FALSE.
       IMPFSN    = .FALSE.
! read data from the unstructured devoted namelist
       CALL READNL ( NDSS, 'UNST', STATUS ) 
!
! 6.m Select propagation scheme
!
      WRITE (NDSO,950)
!
      NRPROP = 0
      FLPROP = .TRUE.
      PNAME  = '                              '
!/PR0      PNAME  = 'Not defined                   '
!/PR0      NRPROP = NRPROP + 1
!/PR0      FLPROP = .FALSE.
!/PR1      PNAME  = 'First order upstream          '
!/PR1      NRPROP = NRPROP + 1
!/UQ      PNAME  = '3rd order UQ'
!/UNO      PNAME  = '2nd order UNO'
       J = LEN_TRIM(PNAME)
!/PR2      PNAME  = PNAME(1:J)//' + GSE diffusion '
!/PR2      NRPROP = NRPROP + 1
!/PR3      PNAME  = PNAME(1:J)//' + GSE averaging '
!/PR3      NRPROP = NRPROP + 1
!
!/SMC      PNAME  = 'UNO2 on SMC grid + diffusion  '
!/SMC      NRPROP = NRPROP + 1
!
!/PRX      PNAME  = 'Experimental                  '
!/PRX      NRPROP = NRPROP + 1
!
      IF ( (FLCX.OR.FLCY.OR.FLCTH.OR.FLCK) .AND. .NOT. FLPROP ) THEN
          WRITE (NDSE,1030)
          CALL EXTCDE ( 20 )
        END IF
!
      IF ( .NOT.(FLCX.OR.FLCY.OR.FLCTH.OR.FLCK) .AND. FLPROP ) THEN
          WRITE (NDSE,1031)
        END IF
!
      IF ( NRPROP.EQ.0 ) THEN
          WRITE (NDSE,1032)
          CALL EXTCDE ( 21 )
        END IF
!
      IF ( NRPROP .GT. 1 ) THEN
          WRITE (NDSE,1033) NRPROP
          CALL EXTCDE ( 22 )
        END IF
!
! 6.m Parameters for propagation scheme
!
      WRITE (NDSO,951) PNAME
!
      CFLTM  =  0.7
!
!/PR2      DTIME  =  0.
!/PR2      LATMIN = 70.
!
!/SMC !Li  Default values of smc grid parameters.  JGLi23Nov2015
!/SMC      LvSMC  =  1
!/SMC      ISHFT  =  0
!/SMC      JEQT   =  0
!/SMC      NBISMC =  0
!/SMC      DTIME  =  0.0
!/SMC      LATMIN = 86.0
!/SMC      RFMAXD = 80.0
!/SMC      UNO3   = .FALSE.
!/SMC      AVERG  = .FALSE.
!
!/PR3      WDTHCG = 1.5
!/PR3      WDTHTH = WDTHCG
!
!/PR1      CALL READNL ( NDSS, 'PRO1', STATUS )
!/PR1      IF ( STATUS(18:18) .EQ. ':' ) STATUS(18:18) = ' '
!/PR1      WRITE (NDSO,952) STATUS(1:18)
!/PR1      CFLTM  = MAX ( 0. , CFLTM )
!/PR1      WRITE (NDSO,953) CFLTM
!
!/PR2      CALL READNL ( NDSS, 'PRO2', STATUS )
!/PR2      IF ( STATUS(18:18) .EQ. ':' ) STATUS(18:18) = ' '
!/PR2      WRITE (NDSO,952) STATUS(1:18)
!/PR2      CFLTM  = MAX ( 0. , CFLTM )
!/PR2      DTIME  = MAX ( 0. , DTIME )
!/PR2      LATMIN = MIN ( 89. , ABS(LATMIN) )
!/PR2      CLATMN = COS ( LATMIN * DERA )
!/PR2      IF ( DTIME .EQ. 0. ) THEN
!/PR2          WRITE (NDSO,953) CFLTM, LATMIN
!/PR2        ELSE
!/PR2          WRITE (NDSO,954) CFLTM, DTIME/3600., LATMIN
!/PR2        END IF
!/PR2      DTME   = DTIME
!
!/SMC      CALL READNL ( NDSS, 'PSMC', STATUS )
!/SMC      IF ( STATUS(18:18) .EQ. ':' ) STATUS(18:18) = ' '
!/SMC      WRITE (NDSO,952) STATUS(1:18)
!/SMC      CFLTM  = MAX ( 0. , CFLTM )
!/SMC      DTIME  = MAX ( 0. , DTIME )
!/SMC      LATMIN = MIN ( 89. , ABS(LATMIN) )
!/SMC      CLATMN = COS ( LATMIN * DERA )
!/SMC      RFMAXD = MIN ( 80.0, ABS(RFMAXD) )
!/SMC      IF ( DTIME .EQ. 0. ) THEN
!/SMC          WRITE (NDSO,953) CFLTM, LATMIN, RFMAXD
!/SMC        ELSE
!/SMC          WRITE (NDSO,954) CFLTM, DTIME/3600., LATMIN, RFMAXD
!/SMC        END IF
!/SMC      DTME   = DTIME
!/SMC      Refran = RFMAXD * DERA 
!/SMC      FUNO3  = UNO3
!/SMC      FVERG  = AVERG
!/SMC      IF( UNO3 ) WRITE (NDSO,*)                  &
!/SMC        " Advection use 3rd order UNO3 instead of UNO2 scheme."
!/SMC      IF( AVERG) WRITE (NDSO,*)                  &
!/SMC        " Extra 1-2-1 average smoothing activated on SMC grid."
!/SMC      NRLv = LvSMC 
!/SMC      WRITE (NDSO,4001) NRLv
!/SMC      WRITE (NDSO,4002) JEQT
!/SMC      WRITE (NDSO,4302) ISHFT
!/SMC      WRITE (NDSO,4003) NBISMC
!
!/PR3      CALL READNL ( NDSS, 'PRO3', STATUS )
!/PR3      IF ( STATUS(18:18) .EQ. ':' ) STATUS(18:18) = ' '
       IF (GTYPE.NE.UNGTYPE) THEN
!/PR3          WRITE (NDSO,952) STATUS(1:18)
!/PR3      CFLTM  = MAX ( 0. , CFLTM )
!/PR3          WRITE (NDSO,953) CFLTM, WDTHCG
!/PR3      IF ( WDTHCG*(XFR-1.) .GT. 1. ) WRITE (NDSO,955) 1./(XFR-1.)
!/PR3          WRITE (NDSO,954) WDTHTH
!/PR3      IF ( WDTHTH*DTH .GT. 1. ) WRITE (NDSO,955) 1./DTH
!/PR3          WRITE (NDSO,*)
       ENDIF
!/PR3      WDCG   = WDTHCG
!/PR3      WDTH   = WDTHTH
!
      CTMAX  = CFLTM
!
! 6.n Set miscellaneous parameters (ice, seeding, numerics ... )
!
      CICE0  = 0.5
      CICEN  = 0.5
      LICE   = 0.
      ICEHMIN= 0.2  ! the 0.2 value is arbitrary and needs to be tuned.
      ICEHINIT=0.5  
      ICEWIND=1.0
      GSHIFT = 0.0D0
      PMOVE  = 0.5
      XSEED  = 1.
      FLAGTR = 0
      XP     = 0.15
      XR     = 0.10
      XFILT  = 0.05
      IHM    = 100
      HSPM   = 0.05
      WSM    = 1.7
      WSC    = 0.333
      FLC    = .TRUE.
      NOSW   = 5
      FMICHE = 1.6
      RWNDC  = 1.
      WCOR1  = 99. 
      WCOR2  = 0.
! Variables for Space-Time Extremes
!  Default negative values make w3iogomd use local grid size
      STDX = -1. 
      STDY = -1. 
      STDT = -1. 
      ICEDISP = .FALSE.
! Variables for 3D array output
      E3D=0 
      I1E3D=1
      I2E3D=NK
      P2SF   = 0
      I1P2SF = 1
      I2P2SF = 15
      US3D=0 
      I1US3D=1
      I2US3D=NK
      TH1MF=0 
      I1TH1M=1
      I2TH1M=NK
      STH1MF=0 
      I1STH1M=1
      I2STH1M=NK
      TH2MF=0
      I1TH2M=1
      I2TH2M=NK
      STH2MF=0 
      I1STH2M=1
      I2STH2M=NK
!
      FACBERG=1.
!/IS0      WRITE (NDSO,944)
!/IS1      ISC1 = 1.
!/IS1      ISC2 = 0.
!/IS1      CALL READNL ( NDSS, 'SIS1', STATUS )
!/IS1      WRITE (NDSO,945) STATUS
!/IS1      WRITE (NDSO,946) ISC1, ISC2
!/IS1      IS1C1 = ISC1
!/IS1      IS1C2 = ISC2
!/IS2      ISC1 = 1.
!/IS2      IS2C2 = 0.   ! 0.025
!/IS2      IS2C3 = 0.   ! 2.4253
!/IS2      IS2CONC = 0.   
!/IS2      IS2BACKSCAT = 1.
!/IS2      IS2BREAK = .FALSE.
!/IS2      IS2BREAKF = 3.6
!/IS2      IS2DISP=.FALSE. !not dispersion only attenuation following Liu disp. eq.
!/IS2      IS2DUPDATE=.TRUE.
!/IS2      IS2FRAGILITY=0.9
!/IS2      IS2DMIN=20
!/IS2      IS2DAMP=0.
!/IS2      IS2CREEPB=0.
!/IS2      IS2CREEPC=0.2
!/IS2      IS2CREEPD=0.4
!/IS2      IS2CREEPN=3.0
!/IS2      IS2BREAKE=1.
!/IS2      CALL READNL ( NDSS, 'SIS2', STATUS )
!/IS2      WRITE (NDSO,947) STATUS
!/IS2      WRITE (NDSO,948) ISC1, IS2BACKSCAT, IS2BREAK, IS2DUPDATE, IS2DISP, &
!/IS2        IS2DAMP, IS2FRAGILITY, IS2DMIN, IS2C2, IS2C3, IS2CONC, IS2CREEPB,&
!/IS2        IS2CREEPC, IS2CREEPD, IS2CREEPN, IS2BREAKE, IS2BREAKF
!
!/REF1      REFCOAST=0.
!/REF1      REFMAP=0.
!/REF1      REFMAPD=0.
!/REF1      REFRMAX=1.
!/REF1      REFFREQPOW=2.
!/REF1      REFFREQ=0.
!/REF1      REFCOSP_STRAIGHT=4.
!/REF1      REFSLOPE=0.22
!/REF1      REFSUBGRID=0.
!/REF1      REFICEBERG=0.
!
!/REF1      CALL READNL ( NDSS, 'REF1', STATUS )
!/REF1      WRITE (NDSO,969) STATUS
!
!/IG1       IGMETHOD = 2
!/IG1       IGADDOUTP= 0 
!/IG1       IGSOURCE = 2
!/IG1       IGSTERMS = 0
!/IG1       IGMAXFREQ=0.03
!/IG1       IGSOURCEATBP = 0
!/IG1       IGBCOVERWRITE = .TRUE.
!/IG1       IGSWELLMAX = .TRUE.
!/IG1       IGKDMIN = 1.1
!/IG1       IGFIXEDDEPTH = 0.
!/IG1       IGEMPIRICAL = 0.00125
!
!/IG1      CALL READNL ( NDSS, 'SIG1 ', STATUS )
!/IG1      WRITE (NDSO,970) STATUS
!
!/IC2       IC2DISPER = .FALSE. 
!/IC2       IC2TURB = 1.
!/IC2       IC2TURBS = 0.
!/IC2       IC2ROUGH = 0.01 
!/IC2       IC2REYNOLDS = 1.5E5
!/IC2       IC2SMOOTH = 2E5
!/IC2       IC2VISC = 1.
!
!/IC3       IC3MAXTHK = 100.0
!/IC3       IC3MAXCNC = 100.0
!/IC3       IC2TURB = 2.0 ! from run_test example by F.A.
!/IC3       IC2TURBS = 0.
!/IC3       IC2ROUGH = 0.02  !  from run_test example by F.A. (alt:0.1)
!/IC3       IC2REYNOLDS = 1.5E5
!/IC3       IC2SMOOTH = 7.0E4
!/IC3       IC2VISC = 2.0
!/IC3       IC3CHENG = .TRUE.
!/IC3       USECGICE = .FALSE.
!/IC3       IC3HILIM = 100.0
!/IC3       IC3KILIM = 100.0
!/IC3       IC3HICE = -1.0
!/IC3       IC3VISC = -2.0
!/IC3       IC3DENS = -3.0
!/IC3       IC3ELAS = -4.0
!fixme: if USECGICE = .TRUE., don't allow use of IC3MAXTHK<100.0

!/IC4       IC4METHOD = 1 !switch for methods within IC4
!/IC4       IC4KI=0.0
!/IC4       IC4FC=0.0

!
!/IC2      CALL READNL ( NDSS, 'SIC2 ', STATUS )
!/IC2      WRITE (NDSO,971) STATUS
!
!/IC3      CALL READNL ( NDSS, 'SIC3 ', STATUS )
!/IC3      WRITE (NDSO,971) STATUS
!
!/IC4      CALL READNL ( NDSS, 'SIC4 ', STATUS )
!/IC4      WRITE (NDSO,971) STATUS
!
      CALL READNL ( NDSS, 'OUTS', STATUS )
      WRITE (NDSO,4970) STATUS
!
!
! output of frequency spectra, th1m ... 
!
      E3DF(1,1) = E3D
      E3DF(2,1) = MIN(MAX(1,I1E3D),NK)
      E3DF(3,1) = MIN(MAX(1,I2E3D),NK)
      E3DF(1,2) = TH1MF
      E3DF(2,2) = MIN(MAX(1,I1TH1M),NK)
      E3DF(3,2) = MIN(MAX(1,I2TH1M),NK)
      E3DF(1,3) = STH1MF
      E3DF(2,3) = MIN(MAX(1,I1STH1M),NK)
      E3DF(3,3) = MIN(MAX(1,I2STH1M),NK)
      E3DF(1,4) = TH2MF
      E3DF(2,4) = MIN(MAX(1,I1TH2M),NK)
      E3DF(3,4) = MIN(MAX(1,I2TH2M),NK)
      E3DF(1,5) = STH2MF
      E3DF(2,5) = MIN(MAX(1,I1STH2M),NK)
      E3DF(3,5) = MIN(MAX(1,I2STH2M),NK)
!
! output of microseismic source spectra
!
      P2MSF(1) = P2SF
      P2MSF(2) = MIN(MAX(1,I1P2SF),NK)
      P2MSF(3) = MIN(MAX(1,I2P2SF),NK)
!
! output of Stokes drift profile
!
      US3DF(1) = US3D
      US3DF(2) = I1US3D
      US3DF(3) = I2US3D
      US3DF(2) = MAX( 1 , MIN(NK,US3DF(2)) )
      US3DF(3) = MAX( 1 , MIN(NK,US3DF(3)) )
      WRITE (NDSO,4971) P2MSF(1:3)
      WRITE (NDSO,4972) US3DF(1:3)
      WRITE (NDSO,4973) E3DF(1:3,1)
!
      CALL READNL ( NDSS, 'MISC', STATUS )
      WRITE (NDSO,960) STATUS
!
      IF ( FLAGTR.LT.0 .OR. FLAGTR.GT.6 ) FLAGTR = 0
      CICEN  = MIN ( 1. , MAX ( 0. , CICEN ) )
      ICEWIND  = MIN ( 1. , MAX ( 0. , ICEWIND ) )
      FICEN  = CICEN
      GRIDSHIFT=GSHIFT
      ICE100WIND=ICEWIND
      CICE0  = MIN ( CICEN , MAX ( 0. , CICE0 ) )
      FICEL  = LICE
      IICEHMIN  = ICEHMIN
      IICEHINIT  = ICEHINIT
      IICEDISP= ICEDISP
      PMOVE  = MAX ( 0. , PMOVE )
      PFMOVE = PMOVE
!
! Notes: Presently, if we select CICE0.ne.CICEN requires an obstruction
!     grid, that is initialized with zeros as default.
      IF ( FLAGTR .LT. 3 ) THEN
        IF (CICE0.NE.CICEN) THEN
          CICE0 = CICEN
          IF (STATUS=='(user def. values) :')  WRITE (NDSO,2961)
          END IF
        END IF
!/IC0      IF ( CICE0.EQ.CICEN .AND. FLAGTR.GE.3 ) FLAGTR = FLAGTR - 2
      WRITE (NDSO,961) CICE0, CICEN
      WRITE (NDSO,8972) ICEWIND
      FICE0  = CICE0
! Variables for Space-Time Extremes
[...]
 1987 FORMAT ( '         Nr.|  IX |  IY |     X     |     Y     '/    &
               '       -----|-----|-----|-----------|-----------')
  988 FORMAT ( '       ',I4,2(' |',I4),2(' |',F8.2))
 1988 FORMAT ( '       ',I4,2(' |',I4),2(' |',F8.1,'E3'))
  989 FORMAT ( ' ')
!
  990 FORMAT (/'  Output boundary points : '/                         &
               ' --------------------------------------------------')
  991 FORMAT ( '       File nest',I1,'.ww3  Number of points  :',I6/  &
               '                       Number of spectra :',I6)
  992 FORMAT (/'         Nr.|  Long.  |   Lat.  '/               &
               '       -----|---------|---------')
 1992 FORMAT (/'         Nr.|  Long.  |   Lat.  ',               &
               '         Nr.|  Long.  |   Lat.  '/               &
               '       -----|---------|---------',               &
               '       -----|---------|---------')
  993 FORMAT ( '       ',I4,2(' |',F8.2))
 1993 FORMAT ( '       ',I4,2(' |',F8.2),                        &
              '        ',I4,2(' |',F8.2))
  994 FORMAT ( '   *** POINT OUTSIDE GRID (SKIPPED) : X,Y =',2F7.2)
  995 FORMAT ( '   *** POINT ON LAND      (SKIPPED) : X,Y =',2F7.2)
 2992 FORMAT (/'         Nr.|     X     |     Y     '/           &
               '       -----|-----------|-----------')
 3992 FORMAT (/'         Nr.|     X     |     Y     ',           &
                 '       Nr.|     X     |     Y     '/           &
               '       -----|-----------|-----------',           &
                 '     -----|-----------|-----------')
 2993 FORMAT ( '       ',I4,2(' |',F8.1,'E3'))
 3993 FORMAT ( '       ',I4,2(' |',F8.1,'E3'),                   &
                '      ',I4,2(' |',F8.1,'E3'))
 2994 FORMAT ( '   *** POINT OUTSIDE GRID (SKIPPED) : X,Y =',2(F8.1,'E3'))
 2995 FORMAT ( '   *** POINT ON LAND      (SKIPPED) : X,Y =',2(F8.1,'E3'))
  996 FORMAT ( '       No boundary points.'/)
  997 FORMAT ( '       Number of boundary points   :',I6/             &
               '       Number of spectra           :',I6/)
!
!/O2a  998 FORMAT (50I2)
!/O2c 1998 FORMAT (50I2)
!
  999 FORMAT (/'  Writing model definition file ...'/)
!
 1000 FORMAT (/' *** WAVEWATCH III ERROR IN W3GRID : '/               &
               '     ERROR IN OPENING INPUT FILE'/                    &
               '     IOSTAT =',I5/)
!
 1001 FORMAT (/' *** WAVEWATCH III ERROR IN W3GRID : '/               &
               '     PREMATURE END OF INPUT FILE'/)
!
 1002 FORMAT (/' *** WAVEWATCH III ERROR IN W3GRID : '/               &
               '     ERROR IN READING FROM INPUT FILE'/               &
               '     IOSTAT =',I5/)
!
 1003 FORMAT (/' *** WAVEWATCH III ERROR IN W3GRID : '/               &
         '     DISCREPANCY IN DECLARED AND READ SPECTRAL DIMENSIONS'/ &
               '     DECLARED NK, NTH : ',2I8/                         &
               '     READ NK, NTH     : ',2I8/)
!
 1004 FORMAT (/' *** WAVEWATCH III ERROR IN W3GRID : '/               &
               '     CANNOT READ UNFORMATTED (IDFM = 3) FROM UNIT',   &
               I4,' (ww3_grid.inp)'/)
!
 1005 FORMAT (/' *** WAVEWATCH III ERROR IN W3GRID : '/               &
               '     BOTTOM AND OBSTRUCTION DATA FROM SAME FILE '/    &
               '     BUT WITH INCOMPATIBLE FORMATS (',I1,',',I1,')'/)
!
 1006 FORMAT (/' *** WAVEWATCH III ERROR IN W3GRID :'/                &
               '     TOO MANY NESTING OUTPUT FILES '/)
!
 1007 FORMAT (/' *** WAVEWATCH-III ERROR IN W3GRID :'/                &
               '     ILLEGAL GRID TYPE:',A4)
!
 1008 FORMAT (/' *** WAVEWATCH-III ERROR IN W3GRID :'/                &
               '     A CARTESIAN WITH CLOSURE IS NOT ALLOWED')
!
 1009 FORMAT (/' *** WAVEWATCH-III ERROR IN W3GRID :'/                &
               '     A RECTILINEAR TRIPOLE GRID IS NOT ALLOWED')
!
 1010 FORMAT (/' *** WAVEWATCH-III ERROR IN W3GRID :'//               &
               '     NO PROPAGATION + NO SOURCE TERMS = NO WAVE MODEL'// &
               '     ( USE DRY RUN FLAG TO TEMPORARILY SWITCH OFF ',  &
               'CALCULATIONS )'/)
!
 1011 FORMAT (/' *** WAVEWATCH-III WARNING IN W3GRID :'/              &
               '     LEFT-HANDED GRID -- POSSIBLE CAUSE IS WRONG '/   &
               '     IDLA:',I4,' . THIS MAY PRODUCE ERRORS '/         &
               '     (COMMENT THIS EXTCDE AT YOUR OWN RISK).')
!
 1012 FORMAT (/' *** WAVEWATCH-III ERROR IN W3GRID :'/                &
               '     ILLEGAL GRID CLOSURE TYPE:',A4)
!
 1013 FORMAT (/' *** WAVEWATCH-III WARNING IN W3GRID :'/              &
               '     THE GLOBAL (LOGICAL) INPUT FLAG IS DEPRECATED'/  &
               '     AND REPLACED WITH A STRING INDICATING THE TYPE'/ &
               '     OF GRID INDEX CLOSURE (NONE, SMPL or TRPL).'/    &
               ' *** PLEASE UPDATE YOUR GRID INPUT FILE ACCORDINGLY ***'/)
!
 1020 FORMAT (/' *** WAVEWATCH-III ERROR IN W3GRID :'/                &
               '     SOURCE TERMS REQUESTED BUT NOT SELECTED'/)
 1021 FORMAT (/' *** WAVEWATCH III WARNING IN W3GRID :'/              &
               '     SOURCE TERMS SELECTED BUT NOT REQUESTED'/)
 1022 FORMAT (/' *** WAVEWATCH III ERROR IN W3GRID :'/                &
               '     ILLEGAL NUMBER OF !/LNn OR SEED SWITCHES :',I3)
 1023 FORMAT (/' *** WAVEWATCH III ERROR IN W3GRID :'/                &
               '     ILLEGAL NUMBER OF !/STn SWITCHES :',I3)
 1024 FORMAT (/' *** WAVEWATCH III ERROR IN W3GRID :'/                &
               '     ILLEGAL NUMBER OF !/NLn SWITCHES :',I3)
 1025 FORMAT (/' *** WAVEWATCH III ERROR IN W3GRID :'/                &
               '     ILLEGAL NUMBER OF !/BTn SWITCHES :',I3)
 1026 FORMAT (/' *** WAVEWATCH III ERROR IN W3GRID :'/                &
               '     ILLEGAL NUMBER OF !/DBn SWITCHES :',I3)
 1027 FORMAT (/' *** WAVEWATCH III ERROR IN W3GRID :'/                &
               '     ILLEGAL NUMBER OF !/TRn SWITCHES :',I3)
 1028 FORMAT (/' *** WAVEWATCH III ERROR IN W3GRID :'/                &
               '     ILLEGAL NUMBER OF !/BSn SWITCHES :',I3)
 1029 FORMAT (/' *** WAVEWATCH III ERROR IN W3GRID :'/                &
               '     ILLEGAL NUMBER OF !/XXn SWITCHES :',I3)
!
 1030 FORMAT (/' *** WAVEWATCH III ERROR IN W3GRID :'/                &
               '     PROPAGATION REQUESTED BUT NO SCHEME SELECTED '/)
 1031 FORMAT (/' *** WAVEWATCH III WARNING IN W3GRID :'/              &
               '     NO PROPAGATION REQUESTED BUT SCHEME SELECTED '/)
 1032 FORMAT (/' *** WAVEWATCH III ERROR IN W3GRID :'/                &
               '     NO PROPAGATION SCHEME SELECTED ( use !/PR0 ) '/)
 1033 FORMAT (/' *** WAVEWATCH III ERROR IN W3GRID :'/                &
               '     MULTIPLE PROPAGATION SCHEMES SELECTED :',I3/     &
               '     CHECK !/PRn SWITCHES'/)
 1034 FORMAT (/' *** WAVEWATCH III ERROR IN W3GRID :'/                &
               '     ILLEGAL NUMBER OF !/ICn SWITCHES :',I3)
 1035 FORMAT (/' *** WAVEWATCH III WARNING IN W3GRID :'/              &
               '     ONLY FIRST PROPAGATION SCHEME WILL BE USED: ')
 1036 FORMAT (/' *** WAVEWATCH III ERROR IN W3GRID :'/                &
               '     ILLEGAL NUMBER OF !/ISn SWITCHES :',I3)
!
 1040 FORMAT ( '       Space-time extremes DX      :',F10.2)
 1041 FORMAT ( '       Space-time extremes DX      :',F10.2)
 1042 FORMAT ( '       Space-time extremes DX-Y set to default 1000 m')
 1043 FORMAT ( '       Space-time extremes Dt      :',F8.2)
 1044 FORMAT ( '       Space-time extremes Dt set to default 1200 s')
!
 1100 FORMAT (/'  Status map, printed in',I3,' part(s) '/             &
               ' -----------------------------------'/)
 1101 FORMAT (2X,180I2)
 1102 FORMAT ( '  Legend : '/                                         &
               ' -----------------------------'/                      &
               '    0 : Land point            '/                      &
               '    1 : Sea point             '/                      &
               '    2 : Active boundary point '/                      &
               '    3 : Excluded point        '/)
 1103 FORMAT (/'  Obstruction map ',A1,', printed in',I3,' part(s) '/ &
               ' ---------------------------------------------'/)
 1104 FORMAT ( '  Legend : '/                                         &
               ' --------------------------------'/                   &
               '    fraction of obstruction * 10 '/)

 1105 FORMAT (/'  Shoreline slope, printed in',I3,' part(s) '/ &
               ' ---------------------------------------------'/)
 1106 FORMAT ( '  Legend : '/                                         &
               ' --------------------------------'/                   &
               '   Slope * 100'/)


 1150 FORMAT (/'  Reading unstructured grid definition files ...'/)
!
 9997 FORMAT (/'  Summary grid statistics : '/                        &
               ' --------------------------------------------------'/ &
               '       Number of longitudes      :',I10/              &
               '       Number of latitides       :',I10/              &
               '       Number of grid points     :',I10/              &
               '       Number of sea points      :',I10,' (',F4.1,'%)'/&
               '       Number of input b. points :',I10/              &
               '       Number of land points     :',I10/              &
               '       Number of excluded points :',I10/)
 9998 FORMAT (/'  Summary grid statistics : '/                        &
               ' --------------------------------------------------'/ &
               '       Number of longitudes      :',I10/              &
               '       Number of latitides       :',I10/              &
               '       Number of grid points     :',I10/              &
               '       Number of sea points      :',I10,' (100%)'/    &
               '       Number of input b. points :',I10/              &
               '       Number of land points     :',I10/              &
               '       Number of excluded points :',I10/)
 9999 FORMAT (/'  End of program '/                                   &
               ' ========================================'/           &
               '         WAVEWATCH III Grid preprocessor '/)
!
!/T 9090 FORMAT ( ' TEST W3GRID : OUTPUT BOUND. POINT DATA LINE SEG.')
!/T 9091 FORMAT ( '             ',2F8.2,4(2I4,F7.2))
!/T 9092 FORMAT ( '                      ',F7.2,2X,4F7.2)
!/T 9093 FORMAT ( '                            ',4I7/                 &
!/T               '                            ',4I7)
!
!/T0 9095 FORMAT ( ' TEST W3GRID : OUTPUT BOUND. POINT SPEC DATA ')
!/T0 9096 FORMAT ( '            ',I3,2I8)
!/
!/ Internal function READNL ------------------------------------------ /
!/
      CONTAINS
!/ ------------------------------------------------------------------- /
      SUBROUTINE READNL ( NDS, NAME, STATUS )
!/
!/                  +-----------------------------------+
!/                  | WAVEWATCH III           NOAA/NCEP |
!/                  |           H. L. Tolman            |
!/                  |                        FORTRAN 90 |
!/                  | Last update :         01-Jun-2013 |
!/                  +-----------------------------------+
!/
!  1. Purpose :
!
!     Read namelist info from file if namelist is found in file.
!
!  2. Method :
!
!     Look for namelist with name NAME in unit NDS and read if found.
!
!  3. Parameters :
!
!     Parameter list
!     ----------------------------------------------------------------
!       NDS     Int.   I   Data set number used for search.
!       NAME    C*4    I   Name of namelist.
!       STATUS  C*20   O   Status at end of routine,
!                            '(default values)  ' if no namelist found.
!                            '(user def. values)' if namelist read.
!     ----------------------------------------------------------------
!
!  4. Subroutines used :
!
!      Name      Type  Module   Description
!     ----------------------------------------------------------------
!      EXTCDE    Subr. W3SERVMD Abort program as graceful as possible.
!     ----------------------------------------------------------------
!
!  5. Called by :
!
!     Program in which it is contained.
!
!  6. Error messages :
!
!  7. Remarks :
!
!  8. Structure :
!
!  9. Switches :
!
! 10. Source code :
!
!/ ------------------------------------------------------------------- /
!/ Parameter list
!/
      INTEGER, INTENT(IN)     :: NDS
      CHARACTER, INTENT(IN)   :: NAME*4
      CHARACTER, INTENT(OUT)  :: STATUS*20
!/
!/ ------------------------------------------------------------------- /
!/ Local parameters
!/
      INTEGER                 :: IERR, I, J
      CHARACTER               :: LINE*80
!/
!/ ------------------------------------------------------------------- /
!/
!/S      CALL STRACE (IENT, 'READNL')
!
      REWIND (NDS)
      STATUS  = '(default values) :  '
!
      DO
        READ (NDS,'(A)',END=800,ERR=800,IOSTAT=IERR) LINE
        DO I=1, 70 
          IF ( LINE(I:I) .NE. ' ' ) THEN
              IF ( LINE(I:I) .EQ. '&' ) THEN
                  IF ( LINE(I+1:I+4) .EQ. NAME ) THEN
                      BACKSPACE (NDS)
                      SELECT CASE(NAME)
!/FLD1                        CASE('FLD1')
!/FLD1                          READ (NDS,NML=FLD1,END=801,ERR=802,IOSTAT=J)
!/FLD2                        CASE('FLD2')
!/FLD2                          READ (NDS,NML=FLD2,END=801,ERR=802,IOSTAT=J)
!/FLX3                        CASE('FLX3')
!/FLX3                          READ (NDS,NML=FLX3,END=801,ERR=802,IOSTAT=J)
!/FLX4                        CASE('FLX4')
!/FLX4                          READ (NDS,NML=FLX4,END=801,ERR=802,IOSTAT=J)
!/LN1                        CASE('SLN1')
!/LN1                          READ (NDS,NML=SLN1,END=801,ERR=802,IOSTAT=J)
!/ST1                        CASE('SIN1')
!/ST1                          READ (NDS,NML=SIN1,END=801,ERR=802,IOSTAT=J)
!/ST2                        CASE('SIN2')
!/ST2                          READ (NDS,NML=SIN2,END=801,ERR=802,IOSTAT=J)
!/ST3                        CASE('SIN3')
!/ST3                          READ (NDS,NML=SIN3,END=801,ERR=802,IOSTAT=J)
!/ST4                        CASE('SIN4')
!/ST4                          READ (NDS,NML=SIN4,END=801,ERR=802,IOSTAT=J)
!/ST6                        CASE('SIN6')
!/ST6                          READ (NDS,NML=SIN6,END=801,ERR=802,IOSTAT=J)
!/NL1                        CASE('SNL1')
!/NL1                          READ (NDS,NML=SNL1,END=801,ERR=802,IOSTAT=J)
!/NL2                        CASE('SNL2')
!/NL2                          READ (NDS,NML=SNL2,END=801,ERR=802,IOSTAT=J)
!/NL2                        CASE('ANL2')
!/NL2                          IF ( NDEPTH .GT. 100 ) GOTO 804
!/NL2                          DEPTHS(1:NDEPTH) = DPTHNL
!/NL2                          READ (NDS,NML=ANL2,END=801,ERR=802,IOSTAT=J)
!/NL2                          DPTHNL = DEPTHS(1:NDEPTH)
!/NL3                        CASE('SNL3')
!/NL3                          READ (NDS,NML=SNL3,END=801,ERR=802,IOSTAT=J)
!/NL3                        CASE('ANL3')
!/NL3                          IF ( NQDEF .GT. 100 ) GOTO 804
!/NL3                          READ (NDS,NML=ANL3,END=801,ERR=802,IOSTAT=J)
!/NL4                        CASE('SNL4')
!/NL4                          READ (NDS,NML=SNL4,END=801,ERR=802,IOSTAT=J)
!/NLS                        CASE('SNLS')
!/NLS                          READ (NDS,NML=SNLS,END=801,ERR=802,IOSTAT=J)
!/ST1                        CASE('SDS1')
!/ST1                          READ (NDS,NML=SDS1,END=801,ERR=802,IOSTAT=J)
!/ST2                        CASE('SDS2')
!/ST2                          READ (NDS,NML=SDS2,END=801,ERR=802,IOSTAT=J)
!/ST3                        CASE('SDS3')
!/ST3                          READ (NDS,NML=SDS3,END=801,ERR=802,IOSTAT=J)
!/ST4                        CASE('SDS4')
!/ST4                          READ (NDS,NML=SDS4,END=801,ERR=802,IOSTAT=J)
!/ST6                        CASE('SDS6')
!/ST6                          READ (NDS,NML=SDS6,END=801,ERR=802,IOSTAT=J)
!/ST6                        CASE('SWL6')
!/ST6                          READ (NDS,NML=SWL6,END=801,ERR=802,IOSTAT=J)
!/BT1                        CASE('SBT1')
!/BT1                          READ (NDS,NML=SBT1,END=801,ERR=802,IOSTAT=J)
!/BT4                        CASE('SBT4')
!/BT4                          READ (NDS,NML=SBT4,END=801,ERR=802,IOSTAT=J)
!/IS1                        CASE('SIS1')
!/IS1                          READ (NDS,NML=SIS1,END=801,ERR=802,IOSTAT=J)
!/IS2                        CASE('SIS2')
!/IS2                          READ (NDS,NML=SIS2,END=801,ERR=802,IOSTAT=J)
!/DB1                        CASE('SDB1')
!/DB1                          READ (NDS,NML=SDB1,END=801,ERR=802,IOSTAT=J)
!/PR1                        CASE('PRO1')
!/PR1                          READ (NDS,NML=PRO1,END=801,ERR=802,IOSTAT=J)
!/PR2                        CASE('PRO2')
!/PR2                          READ (NDS,NML=PRO2,END=801,ERR=802,IOSTAT=J)
!/SMC                        CASE('PSMC')
!/SMC                          READ (NDS,NML=PSMC,END=801,ERR=802,IOSTAT=J)
!/PR3                        CASE('PRO3')
!/PR3                          READ (NDS,NML=PRO3,END=801,ERR=802,IOSTAT=J)
!/REF1                        CASE('REF1') 
!/REF1                         READ (NDS,NML=REF1,END=801,ERR=802,IOSTAT=J)
!/IG1                        CASE('SIG1') 
!/IG1                         READ (NDS,NML=SIG1,END=801,ERR=802,IOSTAT=J)
!/IC2                        CASE('SIC2') 
!/IC2                         READ (NDS,NML=SIC2,END=801,ERR=802,IOSTAT=J)
!/IC3                        CASE('SIC3') 
!/IC3                         READ (NDS,NML=SIC3,END=801,ERR=802,IOSTAT=J)
!/IC4                        CASE('SIC4 ') 
!/IC4                         READ (NDS,NML=SIC4,END=801,ERR=802,IOSTAT=J)
                        CASE('UNST')
                          READ (NDS,NML=UNST,END=801,ERR=802,IOSTAT=J)
                        CASE('OUTS')
                          READ (NDS,NML=OUTS,END=801,ERR=802,IOSTAT=J)
                        CASE('MISC')
                          READ (NDS,NML=MISC,END=801,ERR=802,IOSTAT=J)
                        CASE DEFAULT
                          GOTO 803
                        END SELECT
                      STATUS  = '(user def. values) :'
                      RETURN
                    END IF
                ELSE
                  EXIT
                END IF
            ENDIF
          END DO
        END DO
!
  800 CONTINUE
      RETURN
!
  801 CONTINUE
      WRITE (NDSE,1001) NAME
      CALL EXTCDE(1)
      RETURN
!
  802 CONTINUE
      WRITE (NDSE,1002) NAME, J
      CALL EXTCDE(2)
      RETURN
!
  803 CONTINUE
      WRITE (NDSE,1003) NAME
      CALL EXTCDE(3)
      RETURN
!
!/NL2  804 CONTINUE
!/NL2      WRITE (NDSE,1004) NDEPTH
!/NL2      CALL EXTCDE(4)
!/NL2      RETURN
!
!/NL3  804 CONTINUE
!/NL3      WRITE (NDSE,1004) NQDEF
!/NL3      CALL EXTCDE(4)
!/NL3      RETURN
!
! Formats
!
 1001 FORMAT (/' *** WAVEWATCH III ERROR IN READNL : '/          &
               '     PREMATURE END OF FILE IN READING ',A/)
 1002 FORMAT (/' *** WAVEWATCH III ERROR IN READNL : '/          &
               '     ERROR IN READING ',A,'  IOSTAT =',I8/)
 1003 FORMAT (/' *** WAVEWATCH III ERROR IN READNL : '/          &
               '     NAMELIST NAME ',A,' NOT RECOGNIZED'/)
!/NL2 1004 FORMAT (/' *** WAVEWATCH III ERROR IN READNL : '/          &
!/NL2               '     TEMP DEPTH ARRAY TOO SMALL, .LE. ',I8/)
!/NL3 1004 FORMAT (/' *** WAVEWATCH-III ERROR IN READNL : '/          &
!/NL3               '     TEMP QPARMS ARRAY TOO SMALL, .LE. ',I8/)
!/
!/ End of READNL ----------------------------------------------------- /
!/
      END SUBROUTINE
!/
!/ End of W3GRID ----------------------------------------------------- /
!/
      END PROGRAM W3GRID
